
This linearized model file was generated by FAST (v7.02.00d-bjj, 20-Feb-2013) on 24-Oct-2017 at 11:41:15.
The aerodynamic calculations were made by AeroDyn (v13.00.02a-bjj, 20-Feb-2013).

 NREL 5.0 MW Baseline Wind Turbine for Use in Offshore Analysis.


Some Useful Information:

   Type of steady state solution found                Trimmed collective blade pitch (TrimCase = 3)
   Azimuth-average rotor speed, RotSpeed      (rad/s)    1.26711E+00
   Period of steady state solution              (sec)    4.95868E+00
   Iterations needed to find steady state solution     108
   Displacement 2-norm of steady state solution (rad)    9.44287E-05
   Velocity 2-norm of steady state solution   (rad/s)    8.37210E-06
   Number of equally-speced azimuth steps, NAzimStep   120
   Order of linearized model, MdlOrder                   1
   Number of active (enabled) DOFs                       6 (12 states)
   Number of control inputs, NInputs                     1
   Number of input wind disturbances, NDisturbs          1
   Number of output measurements                         8


Order of States in Linearized State Matrices:

   Row/column  1 = 1st tower fore-aft bending mode DOF (internal DOF index = DOF_TFA1)
   Row/column  2 = Variable speed generator DOF (internal DOF index = DOF_GeAz)
   Row/column  3 = Drivetrain rotational-flexibility DOF (internal DOF index = DOF_DrTr)
   Row/column  4 = 1st flapwise bending-mode DOF of blade 1 (internal DOF index = DOF_BF(1,1))
   Row/column  5 = 1st flapwise bending-mode DOF of blade 2 (internal DOF index = DOF_BF(2,1))
   Row/column  6 = 1st flapwise bending-mode DOF of blade 3 (internal DOF index = DOF_BF(3,1))
   Row/column  7 to 12 = First derivatives of row/column  1 to  6.


Order of Control Inputs in Linearized State Matrices:

   Column 1 = rotor collective blade pitch      (rad)    7.13162E-02 op


Order of Input Wind Disturbances in Linearized State Matrices:

   Column 1 = horizontal hub-height wind speed  (m/s) : See selected wind file for op


Order of Output Measurements in Linearized State Matrices:

   Row   1 = RotSpeed   (rpm)     
   Row   2 = Q_GeAz     (rad)     
   Row   3 = QD_GeAz    (rad/s)   
   Row   4 = Q_DrTr     (rad)     
   Row   5 = QD_DrTr    (rad/s)   
   Row   6 = GenSpeed   (rpm)     
   Row   7 = Q_TFA1     (m)       
   Row   8 = QD_TFA1    (m/s)     


Linearized State Matrices:

--------- Azimuth =   0.00 deg (with respect to AzimB1Up =   0.00 deg) ---------
op State  	|	op        	|	A - State 	          	          	          	          	          	          	          	          	          	          	          	|	B - Input 	|	Bd - Dstrb
Derivativs	|	States    	|	Matrix    	          	          	          	          	          	          	          	          	          	          	          	|	Matrix    	|	Matrix    
 9.235E-05	|	 3.070E-01	|	 0.000E+00	 0.000E+00	 0.000E+00	 0.000E+00	 0.000E+00	 0.000E+00	 1.000E+00	 0.000E+00	 0.000E+00	 0.000E+00	 0.000E+00	 0.000E+00	|	 0.000E+00	|	 0.000E+00
 1.267E+00	|	 4.708E+00	|	 0.000E+00	 0.000E+00	 0.000E+00	 0.000E+00	 0.000E+00	 0.000E+00	 0.000E+00	 1.000E+00	 0.000E+00	 0.000E+00	 0.000E+00	 0.000E+00	|	 0.000E+00	|	 0.000E+00
-7.824E-08	|	 4.818E-03	|	 0.000E+00	 0.000E+00	 0.000E+00	 0.000E+00	 0.000E+00	 0.000E+00	 0.000E+00	 0.000E+00	 1.000E+00	 0.000E+00	 0.000E+00	 0.000E+00	|	 0.000E+00	|	 0.000E+00
 3.447E-01	|	 4.200E+00	|	 0.000E+00	 0.000E+00	 0.000E+00	 0.000E+00	 0.000E+00	 0.000E+00	 0.000E+00	 0.000E+00	 0.000E+00	 1.000E+00	 0.000E+00	 0.000E+00	|	 0.000E+00	|	 0.000E+00
 1.178E-02	|	 4.679E+00	|	 0.000E+00	 0.000E+00	 0.000E+00	 0.000E+00	 0.000E+00	 0.000E+00	 0.000E+00	 0.000E+00	 0.000E+00	 0.000E+00	 1.000E+00	 0.000E+00	|	 0.000E+00	|	 0.000E+00
-3.577E-01	|	 4.213E+00	|	 0.000E+00	 0.000E+00	 0.000E+00	 0.000E+00	 0.000E+00	 0.000E+00	 0.000E+00	 0.000E+00	 0.000E+00	 0.000E+00	 0.000E+00	 1.000E+00	|	 0.000E+00	|	 0.000E+00
 4.213E-04	|	 9.235E-05	|	-4.435E+00	-3.004E-02	-8.566E+00	 1.854E-01	 6.998E-02	 8.073E-02	-5.023E-02	-4.348E-02	-1.046E-01	 8.386E-03	 3.660E-03	 3.631E-03	|	 1.419E-01	|	 4.233E-02
-1.011E-05	|	 1.267E+00	|	-1.305E-08	 9.640E-10	 1.726E+02	 9.467E-11	-3.687E-10	 5.561E-09	 8.700E-09	-2.703E+00	 1.237E+00	 9.467E-10	-6.677E-10	 1.644E-10	|	-5.432E-08	|	-6.430E-09
 1.813E-06	|	-7.824E-08	|	-1.908E-02	-6.987E-05	-1.960E+02	 1.286E-02	 1.244E-02	 1.249E-02	-7.008E-03	 2.588E+00	-1.519E+00	 2.717E-04	 2.331E-04	 5.078E-05	|	 4.278E-01	|	 8.597E-03
 2.569E-01	|	 3.447E-01	|	 1.860E+01	 6.066E+00	 5.847E+02	-2.152E+01	-5.797E-01	-6.253E-01	-1.394E+01	 2.556E+01	 2.970E+01	-4.065E+00	-1.323E-02	-8.686E-03	|	-5.019E+02	|	 9.392E+00
-4.956E-01	|	 1.178E-02	|	 6.776E+00	-1.435E+00	 5.522E+02	-5.413E-01	-2.105E+01	-3.956E-01	-3.739E-01	 2.658E+01	 3.055E+01	-2.145E-02	-4.226E+00	-1.011E-02	|	-5.127E+02	|	 9.971E+00
 2.420E-01	|	-3.577E-01	|	 7.463E+00	-4.538E+00	 5.516E+02	-5.805E-01	-3.953E-01	-2.110E+01	-8.219E+00	 3.091E+01	 3.489E+01	-2.321E-02	-1.494E-02	-4.100E+00	|	-5.231E+02	|	 9.670E+00

op Output 	|	This colmn	|	C - Output	          	          	          	          	          	          	          	          	          	          	          	|	D - Trnsmt	|	Dd - DTsmt
Measurmnts	|	is blank  	|	Matrix    	          	          	          	          	          	          	          	          	          	          	          	|	Matrix    	|	Matrix    
 1.210E+01	|	          	|	 0.000E+00	 0.000E+00	 0.000E+00	 0.000E+00	 0.000E+00	 0.000E+00	 0.000E+00	 9.549E+00	 9.549E+00	 0.000E+00	 0.000E+00	 0.000E+00	|	 0.000E+00	|	 0.000E+00
 4.708E+00	|	          	|	 0.000E+00	 1.000E+00	 0.000E+00	 0.000E+00	 0.000E+00	 0.000E+00	 0.000E+00	 0.000E+00	 0.000E+00	 0.000E+00	 0.000E+00	 0.000E+00	|	 0.000E+00	|	 0.000E+00
 1.267E+00	|	          	|	 0.000E+00	 0.000E+00	 0.000E+00	 0.000E+00	 0.000E+00	 0.000E+00	 0.000E+00	 1.000E+00	 0.000E+00	 0.000E+00	 0.000E+00	 0.000E+00	|	 0.000E+00	|	 0.000E+00
 4.818E-03	|	          	|	 0.000E+00	 0.000E+00	 1.000E+00	 0.000E+00	 0.000E+00	 0.000E+00	 0.000E+00	 0.000E+00	 0.000E+00	 0.000E+00	 0.000E+00	 0.000E+00	|	 0.000E+00	|	 0.000E+00
-7.824E-08	|	          	|	 0.000E+00	 0.000E+00	 0.000E+00	 0.000E+00	 0.000E+00	 0.000E+00	 0.000E+00	 0.000E+00	 1.000E+00	 0.000E+00	 0.000E+00	 0.000E+00	|	 0.000E+00	|	 0.000E+00
 1.174E+03	|	          	|	 0.000E+00	 0.000E+00	 0.000E+00	 0.000E+00	 0.000E+00	 0.000E+00	 0.000E+00	 9.263E+02	 0.000E+00	 0.000E+00	 0.000E+00	 0.000E+00	|	 0.000E+00	|	 0.000E+00
 3.070E-01	|	          	|	 1.000E+00	 0.000E+00	 0.000E+00	 0.000E+00	 0.000E+00	 0.000E+00	 0.000E+00	 0.000E+00	 0.000E+00	 0.000E+00	 0.000E+00	 0.000E+00	|	 0.000E+00	|	 0.000E+00
 9.235E-05	|	          	|	 0.000E+00	 0.000E+00	 0.000E+00	 0.000E+00	 0.000E+00	 0.000E+00	 1.000E+00	 0.000E+00	 0.000E+00	 0.000E+00	 0.000E+00	 0.000E+00	|	 0.000E+00	|	 0.000E+00


--------- Azimuth =   3.00 deg (with respect to AzimB1Up =   0.00 deg) ---------
op State  	|	op        	|	A - State 	          	          	          	          	          	          	          	          	          	          	          	|	B - Input 	|	Bd - Dstrb
Derivativs	|	States    	|	Matrix    	          	          	          	          	          	          	          	          	          	          	          	|	Matrix    	|	Matrix    
 1.085E-04	|	 3.070E-01	|	 0.000E+00	 0.000E+00	 0.000E+00	 0.000E+00	 0.000E+00	 0.000E+00	 1.000E+00	 0.000E+00	 0.000E+00	 0.000E+00	 0.000E+00	 0.000E+00	|	 0.000E+00	|	 0.000E+00
 1.267E+00	|	 4.760E+00	|	 0.000E+00	 0.000E+00	 0.000E+00	 0.000E+00	 0.000E+00	 0.000E+00	 0.000E+00	 1.000E+00	 0.000E+00	 0.000E+00	 0.000E+00	 0.000E+00	|	 0.000E+00	|	 0.000E+00
-5.261E-09	|	 4.818E-03	|	 0.000E+00	 0.000E+00	 0.000E+00	 0.000E+00	 0.000E+00	 0.000E+00	 0.000E+00	 0.000E+00	 1.000E+00	 0.000E+00	 0.000E+00	 0.000E+00	|	 0.000E+00	|	 0.000E+00
 3.548E-01	|	 4.215E+00	|	 0.000E+00	 0.000E+00	 0.000E+00	 0.000E+00	 0.000E+00	 0.000E+00	 0.000E+00	 0.000E+00	 0.000E+00	 1.000E+00	 0.000E+00	 0.000E+00	|	 0.000E+00	|	 0.000E+00
-8.712E-03	|	 4.679E+00	|	 0.000E+00	 0.000E+00	 0.000E+00	 0.000E+00	 0.000E+00	 0.000E+00	 0.000E+00	 0.000E+00	 0.000E+00	 0.000E+00	 1.000E+00	 0.000E+00	|	 0.000E+00	|	 0.000E+00
-3.472E-01	|	 4.198E+00	|	 0.000E+00	 0.000E+00	 0.000E+00	 0.000E+00	 0.000E+00	 0.000E+00	 0.000E+00	 0.000E+00	 0.000E+00	 0.000E+00	 0.000E+00	 1.000E+00	|	 0.000E+00	|	 0.000E+00
 3.564E-04	|	 1.085E-04	|	-4.435E+00	-3.012E-02	-8.566E+00	 1.850E-01	 6.680E-02	 8.434E-02	-5.024E-02	-4.324E-02	-1.044E-01	 8.380E-03	 3.515E-03	 3.781E-03	|	 1.418E-01	|	 4.228E-02
-1.030E-05	|	 1.267E+00	|	-1.023E-08	-3.009E-09	 1.726E+02	-9.717E-10	-2.945E-09	 3.882E-09	-1.001E-08	-2.703E+00	 1.237E+00	-4.684E-10	-4.983E-11	 3.189E-10	|	-1.221E-07	|	 1.000E-10
 1.574E-06	|	-5.261E-09	|	-1.908E-02	-7.176E-05	-1.960E+02	 1.286E-02	 1.243E-02	 1.250E-02	-7.010E-03	 2.588E+00	-1.519E+00	 2.772E-04	 2.257E-04	 5.202E-05	|	 4.277E-01	|	 8.596E-03
 2.335E-01	|	 3.548E-01	|	 1.856E+01	 6.142E+00	 5.846E+02	-2.151E+01	-5.657E-01	-6.399E-01	-1.371E+01	 2.543E+01	 2.957E+01	-4.069E+00	-1.247E-02	-9.392E-03	|	-5.016E+02	|	 9.400E+00
-4.960E-01	|	-8.712E-03	|	 6.449E+00	-1.750E+00	 5.512E+02	-5.263E-01	-2.105E+01	-3.941E-01	-1.999E-01	 2.675E+01	 3.071E+01	-2.123E-02	-4.227E+00	-1.027E-02	|	-5.134E+02	|	 9.980E+00
 2.664E-01	|	-3.472E-01	|	 7.823E+00	-4.298E+00	 5.526E+02	-5.958E-01	-3.961E-01	-2.111E+01	-8.633E+00	 3.087E+01	 3.486E+01	-2.365E-02	-1.449E-02	-4.095E+00	|	-5.228E+02	|	 9.652E+00

op Output 	|	This colmn	|	C - Output	          	          	          	          	          	          	          	          	          	          	          	|	D - Trnsmt	|	Dd - DTsmt
Measurmnts	|	is blank  	|	Matrix    	          	          	          	          	          	          	          	          	          	          	          	|	Matrix    	|	Matrix    
 1.210E+01	|	          	|	 0.000E+00	 0.000E+00	 0.000E+00	 0.000E+00	 0.000E+00	 0.000E+00	 0.000E+00	 9.549E+00	 9.549E+00	 0.000E+00	 0.000E+00	 0.000E+00	|	 0.000E+00	|	 0.000E+00
 4.760E+00	|	          	|	 0.000E+00	 1.000E+00	 0.000E+00	 0.000E+00	 0.000E+00	 0.000E+00	 0.000E+00	 0.000E+00	 0.000E+00	 0.000E+00	 0.000E+00	 0.000E+00	|	 0.000E+00	|	 0.000E+00
 1.267E+00	|	          	|	 0.000E+00	 0.000E+00	 0.000E+00	 0.000E+00	 0.000E+00	 0.000E+00	 0.000E+00	 1.000E+00	 0.000E+00	 0.000E+00	 0.000E+00	 0.000E+00	|	 0.000E+00	|	 0.000E+00
 4.818E-03	|	          	|	 0.000E+00	 0.000E+00	 1.000E+00	 0.000E+00	 0.000E+00	 0.000E+00	 0.000E+00	 0.000E+00	 0.000E+00	 0.000E+00	 0.000E+00	 0.000E+00	|	 0.000E+00	|	 0.000E+00
-5.261E-09	|	          	|	 0.000E+00	 0.000E+00	 0.000E+00	 0.000E+00	 0.000E+00	 0.000E+00	 0.000E+00	 0.000E+00	 1.000E+00	 0.000E+00	 0.000E+00	 0.000E+00	|	 0.000E+00	|	 0.000E+00
 1.174E+03	|	          	|	 0.000E+00	 0.000E+00	 0.000E+00	 0.000E+00	 0.000E+00	 0.000E+00	 0.000E+00	 9.263E+02	 0.000E+00	 0.000E+00	 0.000E+00	 0.000E+00	|	 0.000E+00	|	 0.000E+00
 3.070E-01	|	          	|	 1.000E+00	 0.000E+00	 0.000E+00	 0.000E+00	 0.000E+00	 0.000E+00	 0.000E+00	 0.000E+00	 0.000E+00	 0.000E+00	 0.000E+00	 0.000E+00	|	 0.000E+00	|	 0.000E+00
 1.085E-04	|	          	|	 0.000E+00	 0.000E+00	 0.000E+00	 0.000E+00	 0.000E+00	 0.000E+00	 1.000E+00	 0.000E+00	 0.000E+00	 0.000E+00	 0.000E+00	 0.000E+00	|	 0.000E+00	|	 0.000E+00


--------- Azimuth =   6.00 deg (with respect to AzimB1Up =   0.00 deg) ---------
op State  	|	op        	|	A - State 	          	          	          	          	          	          	          	          	          	          	          	|	B - Input 	|	Bd - Dstrb
Derivativs	|	States    	|	Matrix    	          	          	          	          	          	          	          	          	          	          	          	|	Matrix    	|	Matrix    
 1.217E-04	|	 3.070E-01	|	 0.000E+00	 0.000E+00	 0.000E+00	 0.000E+00	 0.000E+00	 0.000E+00	 1.000E+00	 0.000E+00	 0.000E+00	 0.000E+00	 0.000E+00	 0.000E+00	|	 0.000E+00	|	 0.000E+00
 1.267E+00	|	 4.812E+00	|	 0.000E+00	 0.000E+00	 0.000E+00	 0.000E+00	 0.000E+00	 0.000E+00	 0.000E+00	 1.000E+00	 0.000E+00	 0.000E+00	 0.000E+00	 0.000E+00	|	 0.000E+00	|	 0.000E+00
 4.705E-08	|	 4.818E-03	|	 0.000E+00	 0.000E+00	 0.000E+00	 0.000E+00	 0.000E+00	 0.000E+00	 0.000E+00	 0.000E+00	 1.000E+00	 0.000E+00	 0.000E+00	 0.000E+00	|	 0.000E+00	|	 0.000E+00
 3.640E-01	|	 4.230E+00	|	 0.000E+00	 0.000E+00	 0.000E+00	 0.000E+00	 0.000E+00	 0.000E+00	 0.000E+00	 0.000E+00	 0.000E+00	 1.000E+00	 0.000E+00	 0.000E+00	|	 0.000E+00	|	 0.000E+00
-2.920E-02	|	 4.679E+00	|	 0.000E+00	 0.000E+00	 0.000E+00	 0.000E+00	 0.000E+00	 0.000E+00	 0.000E+00	 0.000E+00	 0.000E+00	 0.000E+00	 1.000E+00	 0.000E+00	|	 0.000E+00	|	 0.000E+00
-3.357E-01	|	 4.184E+00	|	 0.000E+00	 0.000E+00	 0.000E+00	 0.000E+00	 0.000E+00	 0.000E+00	 0.000E+00	 0.000E+00	 0.000E+00	 0.000E+00	 0.000E+00	 1.000E+00	|	 0.000E+00	|	 0.000E+00
 2.832E-04	|	 1.217E-04	|	-4.435E+00	-3.013E-02	-8.566E+00	 1.843E-01	 6.375E-02	 8.803E-02	-5.024E-02	-4.306E-02	-1.042E-01	 8.371E-03	 3.374E-03	 3.931E-03	|	 1.402E-01	|	 4.227E-02
-1.010E-05	|	 1.267E+00	|	-2.862E-09	 4.143E-09	 1.726E+02	 2.442E-10	-3.299E-09	 1.281E-09	-5.279E-09	-2.703E+00	 1.237E+00	 3.887E-10	-1.271E-09	-1.036E-09	|	 9.015E-08	|	 1.070E-08
 7.529E-07	|	 4.705E-08	|	-1.908E-02	-7.576E-05	-1.960E+02	 1.286E-02	 1.242E-02	 1.252E-02	-7.009E-03	 2.588E+00	-1.519E+00	 2.824E-04	 2.184E-04	 5.404E-05	|	 4.274E-01	|	 8.598E-03
 2.096E-01	|	 3.640E-01	|	 1.851E+01	 6.202E+00	 5.846E+02	-2.151E+01	-5.519E-01	-6.541E-01	-1.345E+01	 2.530E+01	 2.944E+01	-4.073E+00	-1.172E-02	-9.961E-03	|	-5.013E+02	|	 9.410E+00
-4.953E-01	|	-2.920E-02	|	 6.135E+00	-2.062E+00	 5.502E+02	-5.118E-01	-2.105E+01	-3.923E-01	-4.608E-02	 2.691E+01	 3.087E+01	-2.108E-02	-4.229E+00	-1.079E-02	|	-5.141E+02	|	 9.989E+00
 2.901E-01	|	-3.357E-01	|	 8.193E+00	-4.045E+00	 5.536E+02	-6.111E-01	-3.966E-01	-2.112E+01	-9.043E+00	 3.082E+01	 3.482E+01	-2.405E-02	-1.399E-02	-4.089E+00	|	-5.224E+02	|	 9.634E+00

op Output 	|	This colmn	|	C - Output	          	          	          	          	          	          	          	          	          	          	          	|	D - Trnsmt	|	Dd - DTsmt
Measurmnts	|	is blank  	|	Matrix    	          	          	          	          	          	          	          	          	          	          	          	|	Matrix    	|	Matrix    
 1.210E+01	|	          	|	 0.000E+00	 0.000E+00	 0.000E+00	 0.000E+00	 0.000E+00	 0.000E+00	 0.000E+00	 9.549E+00	 9.549E+00	 0.000E+00	 0.000E+00	 0.000E+00	|	 0.000E+00	|	 0.000E+00
 4.812E+00	|	          	|	 0.000E+00	 1.000E+00	 0.000E+00	 0.000E+00	 0.000E+00	 0.000E+00	 0.000E+00	 0.000E+00	 0.000E+00	 0.000E+00	 0.000E+00	 0.000E+00	|	 0.000E+00	|	 0.000E+00
 1.267E+00	|	          	|	 0.000E+00	 0.000E+00	 0.000E+00	 0.000E+00	 0.000E+00	 0.000E+00	 0.000E+00	 1.000E+00	 0.000E+00	 0.000E+00	 0.000E+00	 0.000E+00	|	 0.000E+00	|	 0.000E+00
 4.818E-03	|	          	|	 0.000E+00	 0.000E+00	 1.000E+00	 0.000E+00	 0.000E+00	 0.000E+00	 0.000E+00	 0.000E+00	 0.000E+00	 0.000E+00	 0.000E+00	 0.000E+00	|	 0.000E+00	|	 0.000E+00
 4.705E-08	|	          	|	 0.000E+00	 0.000E+00	 0.000E+00	 0.000E+00	 0.000E+00	 0.000E+00	 0.000E+00	 0.000E+00	 1.000E+00	 0.000E+00	 0.000E+00	 0.000E+00	|	 0.000E+00	|	 0.000E+00
 1.174E+03	|	          	|	 0.000E+00	 0.000E+00	 0.000E+00	 0.000E+00	 0.000E+00	 0.000E+00	 0.000E+00	 9.263E+02	 0.000E+00	 0.000E+00	 0.000E+00	 0.000E+00	|	 0.000E+00	|	 0.000E+00
 3.070E-01	|	          	|	 1.000E+00	 0.000E+00	 0.000E+00	 0.000E+00	 0.000E+00	 0.000E+00	 0.000E+00	 0.000E+00	 0.000E+00	 0.000E+00	 0.000E+00	 0.000E+00	|	 0.000E+00	|	 0.000E+00
 1.217E-04	|	          	|	 0.000E+00	 0.000E+00	 0.000E+00	 0.000E+00	 0.000E+00	 0.000E+00	 1.000E+00	 0.000E+00	 0.000E+00	 0.000E+00	 0.000E+00	 0.000E+00	|	 0.000E+00	|	 0.000E+00


--------- Azimuth =   9.00 deg (with respect to AzimB1Up =   0.00 deg) ---------
op State  	|	op        	|	A - State 	          	          	          	          	          	          	          	          	          	          	          	|	B - Input 	|	Bd - Dstrb
Derivativs	|	States    	|	Matrix    	          	          	          	          	          	          	          	          	          	          	          	|	Matrix    	|	Matrix    
 1.318E-04	|	 3.070E-01	|	 0.000E+00	 0.000E+00	 0.000E+00	 0.000E+00	 0.000E+00	 0.000E+00	 1.000E+00	 0.000E+00	 0.000E+00	 0.000E+00	 0.000E+00	 0.000E+00	|	 0.000E+00	|	 0.000E+00
 1.267E+00	|	 4.865E+00	|	 0.000E+00	 0.000E+00	 0.000E+00	 0.000E+00	 0.000E+00	 0.000E+00	 0.000E+00	 1.000E+00	 0.000E+00	 0.000E+00	 0.000E+00	 0.000E+00	|	 0.000E+00	|	 0.000E+00
 5.240E-08	|	 4.818E-03	|	 0.000E+00	 0.000E+00	 0.000E+00	 0.000E+00	 0.000E+00	 0.000E+00	 0.000E+00	 0.000E+00	 1.000E+00	 0.000E+00	 0.000E+00	 0.000E+00	|	 0.000E+00	|	 0.000E+00
 3.721E-01	|	 4.245E+00	|	 0.000E+00	 0.000E+00	 0.000E+00	 0.000E+00	 0.000E+00	 0.000E+00	 0.000E+00	 0.000E+00	 0.000E+00	 1.000E+00	 0.000E+00	 0.000E+00	|	 0.000E+00	|	 0.000E+00
-4.963E-02	|	 4.677E+00	|	 0.000E+00	 0.000E+00	 0.000E+00	 0.000E+00	 0.000E+00	 0.000E+00	 0.000E+00	 0.000E+00	 0.000E+00	 0.000E+00	 1.000E+00	 0.000E+00	|	 0.000E+00	|	 0.000E+00
-3.232E-01	|	 4.171E+00	|	 0.000E+00	 0.000E+00	 0.000E+00	 0.000E+00	 0.000E+00	 0.000E+00	 0.000E+00	 0.000E+00	 0.000E+00	 0.000E+00	 0.000E+00	 1.000E+00	|	 0.000E+00	|	 0.000E+00
 2.046E-04	|	 1.318E-04	|	-4.435E+00	-3.012E-02	-8.566E+00	 1.835E-01	 6.082E-02	 9.177E-02	-5.022E-02	-4.313E-02	-1.043E-01	 8.353E-03	 3.240E-03	 4.086E-03	|	 1.393E-01	|	 4.229E-02
-9.556E-06	|	 1.267E+00	|	 6.003E-09	-1.954E-09	 1.726E+02	 1.355E-09	-3.388E-10	-8.770E-10	 8.249E-09	-2.703E+00	 1.237E+00	 3.040E-10	-6.727E-10	-8.670E-10	|	 1.720E-07	|	 2.178E-09
-4.078E-07	|	 5.240E-08	|	-1.908E-02	-6.978E-05	-1.960E+02	 1.286E-02	 1.241E-02	 1.253E-02	-7.007E-03	 2.588E+00	-1.519E+00	 2.875E-04	 2.109E-04	 5.591E-05	|	 4.273E-01	|	 8.603E-03
 1.851E-01	|	 3.721E-01	|	 1.843E+01	 6.245E+00	 5.844E+02	-2.150E+01	-5.385E-01	-6.680E-01	-1.318E+01	 2.518E+01	 2.933E+01	-4.078E+00	-1.102E-02	-1.066E-02	|	-5.011E+02	|	 9.420E+00
-4.933E-01	|	-4.963E-02	|	 5.834E+00	-2.368E+00	 5.493E+02	-4.976E-01	-2.105E+01	-3.904E-01	 8.702E-02	 2.708E+01	 3.103E+01	-2.103E-02	-4.230E+00	-1.094E-02	|	-5.147E+02	|	 9.996E+00
 3.131E-01	|	-3.232E-01	|	 8.570E+00	-3.782E+00	 5.547E+02	-6.262E-01	-3.970E-01	-2.113E+01	-9.448E+00	 3.077E+01	 3.477E+01	-2.444E-02	-1.343E-02	-4.084E+00	|	-5.220E+02	|	 9.617E+00

op Output 	|	This colmn	|	C - Output	          	          	          	          	          	          	          	          	          	          	          	|	D - Trnsmt	|	Dd - DTsmt
Measurmnts	|	is blank  	|	Matrix    	          	          	          	          	          	          	          	          	          	          	          	|	Matrix    	|	Matrix    
 1.210E+01	|	          	|	 0.000E+00	 0.000E+00	 0.000E+00	 0.000E+00	 0.000E+00	 0.000E+00	 0.000E+00	 9.549E+00	 9.549E+00	 0.000E+00	 0.000E+00	 0.000E+00	|	 0.000E+00	|	 0.000E+00
 4.865E+00	|	          	|	 0.000E+00	 1.000E+00	 0.000E+00	 0.000E+00	 0.000E+00	 0.000E+00	 0.000E+00	 0.000E+00	 0.000E+00	 0.000E+00	 0.000E+00	 0.000E+00	|	 0.000E+00	|	 0.000E+00
 1.267E+00	|	          	|	 0.000E+00	 0.000E+00	 0.000E+00	 0.000E+00	 0.000E+00	 0.000E+00	 0.000E+00	 1.000E+00	 0.000E+00	 0.000E+00	 0.000E+00	 0.000E+00	|	 0.000E+00	|	 0.000E+00
 4.818E-03	|	          	|	 0.000E+00	 0.000E+00	 1.000E+00	 0.000E+00	 0.000E+00	 0.000E+00	 0.000E+00	 0.000E+00	 0.000E+00	 0.000E+00	 0.000E+00	 0.000E+00	|	 0.000E+00	|	 0.000E+00
 5.240E-08	|	          	|	 0.000E+00	 0.000E+00	 0.000E+00	 0.000E+00	 0.000E+00	 0.000E+00	 0.000E+00	 0.000E+00	 1.000E+00	 0.000E+00	 0.000E+00	 0.000E+00	|	 0.000E+00	|	 0.000E+00
 1.174E+03	|	          	|	 0.000E+00	 0.000E+00	 0.000E+00	 0.000E+00	 0.000E+00	 0.000E+00	 0.000E+00	 9.263E+02	 0.000E+00	 0.000E+00	 0.000E+00	 0.000E+00	|	 0.000E+00	|	 0.000E+00
 3.070E-01	|	          	|	 1.000E+00	 0.000E+00	 0.000E+00	 0.000E+00	 0.000E+00	 0.000E+00	 0.000E+00	 0.000E+00	 0.000E+00	 0.000E+00	 0.000E+00	 0.000E+00	|	 0.000E+00	|	 0.000E+00
 1.318E-04	|	          	|	 0.000E+00	 0.000E+00	 0.000E+00	 0.000E+00	 0.000E+00	 0.000E+00	 1.000E+00	 0.000E+00	 0.000E+00	 0.000E+00	 0.000E+00	 0.000E+00	|	 0.000E+00	|	 0.000E+00


--------- Azimuth =  12.00 deg (with respect to AzimB1Up =   0.00 deg) ---------
op State  	|	op        	|	A - State 	          	          	          	          	          	          	          	          	          	          	          	|	B - Input 	|	Bd - Dstrb
Derivativs	|	States    	|	Matrix    	          	          	          	          	          	          	          	          	          	          	          	|	Matrix    	|	Matrix    
 1.386E-04	|	 3.070E-01	|	 0.000E+00	 0.000E+00	 0.000E+00	 0.000E+00	 0.000E+00	 0.000E+00	 1.000E+00	 0.000E+00	 0.000E+00	 0.000E+00	 0.000E+00	 0.000E+00	|	 0.000E+00	|	 0.000E+00
 1.267E+00	|	 4.917E+00	|	 0.000E+00	 0.000E+00	 0.000E+00	 0.000E+00	 0.000E+00	 0.000E+00	 0.000E+00	 1.000E+00	 0.000E+00	 0.000E+00	 0.000E+00	 0.000E+00	|	 0.000E+00	|	 0.000E+00
 2.375E-08	|	 4.818E-03	|	 0.000E+00	 0.000E+00	 0.000E+00	 0.000E+00	 0.000E+00	 0.000E+00	 0.000E+00	 0.000E+00	 1.000E+00	 0.000E+00	 0.000E+00	 0.000E+00	|	 0.000E+00	|	 0.000E+00
 3.793E-01	|	 4.261E+00	|	 0.000E+00	 0.000E+00	 0.000E+00	 0.000E+00	 0.000E+00	 0.000E+00	 0.000E+00	 0.000E+00	 0.000E+00	 1.000E+00	 0.000E+00	 0.000E+00	|	 0.000E+00	|	 0.000E+00
-6.995E-02	|	 4.674E+00	|	 0.000E+00	 0.000E+00	 0.000E+00	 0.000E+00	 0.000E+00	 0.000E+00	 0.000E+00	 0.000E+00	 0.000E+00	 0.000E+00	 1.000E+00	 0.000E+00	|	 0.000E+00	|	 0.000E+00
-3.098E-01	|	 4.158E+00	|	 0.000E+00	 0.000E+00	 0.000E+00	 0.000E+00	 0.000E+00	 0.000E+00	 0.000E+00	 0.000E+00	 0.000E+00	 0.000E+00	 0.000E+00	 1.000E+00	|	 0.000E+00	|	 0.000E+00
 1.244E-04	|	 1.386E-04	|	-4.435E+00	-3.007E-02	-8.566E+00	 1.825E-01	 5.803E-02	 9.558E-02	-5.020E-02	-4.311E-02	-1.043E-01	 8.326E-03	 3.108E-03	 4.241E-03	|	 1.386E-01	|	 4.232E-02
-9.273E-06	|	 1.267E+00	|	-3.112E-09	 4.052E-09	 1.726E+02	-6.961E-09	 3.239E-10	-1.744E-09	 3.110E-09	-2.703E+00	 1.237E+00	 3.189E-10	-1.794E-10	 2.392E-10	|	-8.663E-08	|	-2.519E-09
-7.125E-07	|	 2.375E-08	|	-1.908E-02	-6.431E-05	-1.960E+02	 1.285E-02	 1.240E-02	 1.254E-02	-7.005E-03	 2.588E+00	-1.519E+00	 2.928E-04	 2.036E-04	 5.853E-05	|	 4.272E-01	|	 8.606E-03
 1.601E-01	|	 3.793E-01	|	 1.833E+01	 6.270E+00	 5.842E+02	-2.150E+01	-5.254E-01	-6.817E-01	-1.289E+01	 2.507E+01	 2.921E+01	-4.082E+00	-1.032E-02	-1.135E-02	|	-5.009E+02	|	 9.430E+00
-4.901E-01	|	-6.995E-02	|	 5.547E+00	-2.669E+00	 5.484E+02	-4.841E-01	-2.105E+01	-3.883E-01	 1.993E-01	 2.725E+01	 3.120E+01	-2.087E-02	-4.230E+00	-1.138E-02	|	-5.154E+02	|	 1.000E+01
 3.352E-01	|	-3.098E-01	|	 8.955E+00	-3.507E+00	 5.558E+02	-6.411E-01	-3.972E-01	-2.113E+01	-9.847E+00	 3.070E+01	 3.471E+01	-2.488E-02	-1.295E-02	-4.080E+00	|	-5.215E+02	|	 9.600E+00

op Output 	|	This colmn	|	C - Output	          	          	          	          	          	          	          	          	          	          	          	|	D - Trnsmt	|	Dd - DTsmt
Measurmnts	|	is blank  	|	Matrix    	          	          	          	          	          	          	          	          	          	          	          	|	Matrix    	|	Matrix    
 1.210E+01	|	          	|	 0.000E+00	 0.000E+00	 0.000E+00	 0.000E+00	 0.000E+00	 0.000E+00	 0.000E+00	 9.549E+00	 9.549E+00	 0.000E+00	 0.000E+00	 0.000E+00	|	 0.000E+00	|	 0.000E+00
 4.917E+00	|	          	|	 0.000E+00	 1.000E+00	 0.000E+00	 0.000E+00	 0.000E+00	 0.000E+00	 0.000E+00	 0.000E+00	 0.000E+00	 0.000E+00	 0.000E+00	 0.000E+00	|	 0.000E+00	|	 0.000E+00
 1.267E+00	|	          	|	 0.000E+00	 0.000E+00	 0.000E+00	 0.000E+00	 0.000E+00	 0.000E+00	 0.000E+00	 1.000E+00	 0.000E+00	 0.000E+00	 0.000E+00	 0.000E+00	|	 0.000E+00	|	 0.000E+00
 4.818E-03	|	          	|	 0.000E+00	 0.000E+00	 1.000E+00	 0.000E+00	 0.000E+00	 0.000E+00	 0.000E+00	 0.000E+00	 0.000E+00	 0.000E+00	 0.000E+00	 0.000E+00	|	 0.000E+00	|	 0.000E+00
 2.375E-08	|	          	|	 0.000E+00	 0.000E+00	 0.000E+00	 0.000E+00	 0.000E+00	 0.000E+00	 0.000E+00	 0.000E+00	 1.000E+00	 0.000E+00	 0.000E+00	 0.000E+00	|	 0.000E+00	|	 0.000E+00
 1.174E+03	|	          	|	 0.000E+00	 0.000E+00	 0.000E+00	 0.000E+00	 0.000E+00	 0.000E+00	 0.000E+00	 9.263E+02	 0.000E+00	 0.000E+00	 0.000E+00	 0.000E+00	|	 0.000E+00	|	 0.000E+00
 3.070E-01	|	          	|	 1.000E+00	 0.000E+00	 0.000E+00	 0.000E+00	 0.000E+00	 0.000E+00	 0.000E+00	 0.000E+00	 0.000E+00	 0.000E+00	 0.000E+00	 0.000E+00	|	 0.000E+00	|	 0.000E+00
 1.386E-04	|	          	|	 0.000E+00	 0.000E+00	 0.000E+00	 0.000E+00	 0.000E+00	 0.000E+00	 1.000E+00	 0.000E+00	 0.000E+00	 0.000E+00	 0.000E+00	 0.000E+00	|	 0.000E+00	|	 0.000E+00


--------- Azimuth =  15.00 deg (with respect to AzimB1Up =   0.00 deg) ---------
op State  	|	op        	|	A - State 	          	          	          	          	          	          	          	          	          	          	          	|	B - Input 	|	Bd - Dstrb
Derivativs	|	States    	|	Matrix    	          	          	          	          	          	          	          	          	          	          	          	|	Matrix    	|	Matrix    
 1.422E-04	|	 3.070E-01	|	 0.000E+00	 0.000E+00	 0.000E+00	 0.000E+00	 0.000E+00	 0.000E+00	 1.000E+00	 0.000E+00	 0.000E+00	 0.000E+00	 0.000E+00	 0.000E+00	|	 0.000E+00	|	 0.000E+00
 1.267E+00	|	 4.969E+00	|	 0.000E+00	 0.000E+00	 0.000E+00	 0.000E+00	 0.000E+00	 0.000E+00	 0.000E+00	 1.000E+00	 0.000E+00	 0.000E+00	 0.000E+00	 0.000E+00	|	 0.000E+00	|	 0.000E+00
 1.281E-08	|	 4.818E-03	|	 0.000E+00	 0.000E+00	 0.000E+00	 0.000E+00	 0.000E+00	 0.000E+00	 0.000E+00	 0.000E+00	 1.000E+00	 0.000E+00	 0.000E+00	 0.000E+00	|	 0.000E+00	|	 0.000E+00
 3.854E-01	|	 4.276E+00	|	 0.000E+00	 0.000E+00	 0.000E+00	 0.000E+00	 0.000E+00	 0.000E+00	 0.000E+00	 0.000E+00	 0.000E+00	 1.000E+00	 0.000E+00	 0.000E+00	|	 0.000E+00	|	 0.000E+00
-9.012E-02	|	 4.671E+00	|	 0.000E+00	 0.000E+00	 0.000E+00	 0.000E+00	 0.000E+00	 0.000E+00	 0.000E+00	 0.000E+00	 0.000E+00	 0.000E+00	 1.000E+00	 0.000E+00	|	 0.000E+00	|	 0.000E+00
-2.955E-01	|	 4.145E+00	|	 0.000E+00	 0.000E+00	 0.000E+00	 0.000E+00	 0.000E+00	 0.000E+00	 0.000E+00	 0.000E+00	 0.000E+00	 0.000E+00	 0.000E+00	 1.000E+00	|	 0.000E+00	|	 0.000E+00
 5.204E-05	|	 1.422E-04	|	-4.435E+00	-2.993E-02	-8.566E+00	 1.813E-01	 5.539E-02	 9.942E-02	-5.020E-02	-4.311E-02	-1.043E-01	 8.329E-03	 2.984E-03	 4.400E-03	|	 1.379E-01	|	 4.232E-02
-9.287E-06	|	 1.267E+00	|	-4.739E-09	 1.511E-09	 1.726E+02	 1.968E-09	-5.830E-10	-3.752E-09	 5.822E-09	-2.703E+00	 1.237E+00	-3.189E-10	-1.500E-09	 0.000E+00	|	 3.035E-07	|	-8.367E-10
 3.468E-07	|	 1.281E-08	|	-1.908E-02	-5.121E-05	-1.960E+02	 1.285E-02	 1.239E-02	 1.256E-02	-7.005E-03	 2.588E+00	-1.519E+00	 3.004E-04	 1.960E-04	 6.108E-05	|	 4.272E-01	|	 8.605E-03
 1.350E-01	|	 3.854E-01	|	 1.822E+01	 6.284E+00	 5.840E+02	-2.149E+01	-5.128E-01	-6.948E-01	-1.259E+01	 2.496E+01	 2.910E+01	-4.085E+00	-9.646E-03	-1.197E-02	|	-5.007E+02	|	 9.441E+00
-4.857E-01	|	-9.012E-02	|	 5.275E+00	-2.963E+00	 5.476E+02	-4.711E-01	-2.105E+01	-3.860E-01	 2.899E-01	 2.742E+01	 3.137E+01	-2.092E-02	-4.231E+00	-1.150E-02	|	-5.161E+02	|	 1.001E+01
 3.563E-01	|	-2.955E-01	|	 9.344E+00	-3.224E+00	 5.569E+02	-6.556E-01	-3.972E-01	-2.114E+01	-1.024E+01	 3.063E+01	 3.464E+01	-2.539E-02	-1.241E-02	-4.075E+00	|	-5.211E+02	|	 9.584E+00

op Output 	|	This colmn	|	C - Output	          	          	          	          	          	          	          	          	          	          	          	|	D - Trnsmt	|	Dd - DTsmt
Measurmnts	|	is blank  	|	Matrix    	          	          	          	          	          	          	          	          	          	          	          	|	Matrix    	|	Matrix    
 1.210E+01	|	          	|	 0.000E+00	 0.000E+00	 0.000E+00	 0.000E+00	 0.000E+00	 0.000E+00	 0.000E+00	 9.549E+00	 9.549E+00	 0.000E+00	 0.000E+00	 0.000E+00	|	 0.000E+00	|	 0.000E+00
 4.969E+00	|	          	|	 0.000E+00	 1.000E+00	 0.000E+00	 0.000E+00	 0.000E+00	 0.000E+00	 0.000E+00	 0.000E+00	 0.000E+00	 0.000E+00	 0.000E+00	 0.000E+00	|	 0.000E+00	|	 0.000E+00
 1.267E+00	|	          	|	 0.000E+00	 0.000E+00	 0.000E+00	 0.000E+00	 0.000E+00	 0.000E+00	 0.000E+00	 1.000E+00	 0.000E+00	 0.000E+00	 0.000E+00	 0.000E+00	|	 0.000E+00	|	 0.000E+00
 4.818E-03	|	          	|	 0.000E+00	 0.000E+00	 1.000E+00	 0.000E+00	 0.000E+00	 0.000E+00	 0.000E+00	 0.000E+00	 0.000E+00	 0.000E+00	 0.000E+00	 0.000E+00	|	 0.000E+00	|	 0.000E+00
 1.281E-08	|	          	|	 0.000E+00	 0.000E+00	 0.000E+00	 0.000E+00	 0.000E+00	 0.000E+00	 0.000E+00	 0.000E+00	 1.000E+00	 0.000E+00	 0.000E+00	 0.000E+00	|	 0.000E+00	|	 0.000E+00
 1.174E+03	|	          	|	 0.000E+00	 0.000E+00	 0.000E+00	 0.000E+00	 0.000E+00	 0.000E+00	 0.000E+00	 9.263E+02	 0.000E+00	 0.000E+00	 0.000E+00	 0.000E+00	|	 0.000E+00	|	 0.000E+00
 3.070E-01	|	          	|	 1.000E+00	 0.000E+00	 0.000E+00	 0.000E+00	 0.000E+00	 0.000E+00	 0.000E+00	 0.000E+00	 0.000E+00	 0.000E+00	 0.000E+00	 0.000E+00	|	 0.000E+00	|	 0.000E+00
 1.422E-04	|	          	|	 0.000E+00	 0.000E+00	 0.000E+00	 0.000E+00	 0.000E+00	 0.000E+00	 1.000E+00	 0.000E+00	 0.000E+00	 0.000E+00	 0.000E+00	 0.000E+00	|	 0.000E+00	|	 0.000E+00


--------- Azimuth =  18.00 deg (with respect to AzimB1Up =   0.00 deg) ---------
op State  	|	op        	|	A - State 	          	          	          	          	          	          	          	          	          	          	          	|	B - Input 	|	Bd - Dstrb
Derivativs	|	States    	|	Matrix    	          	          	          	          	          	          	          	          	          	          	          	|	Matrix    	|	Matrix    