
This linearized model file was generated by FAST (v7.02.00d-bjj, 20-Feb-2013) on 12-Jul-2018 at 22:06:33.
The aerodynamic calculations were made by AeroDyn (v13.00.02a-bjj, 20-Feb-2013).

 NREL 5.0 MW Baseline Wind Turbine for Use in Offshore Analysis.


Some Useful Information:

   Type of steady state solution found                Trimmed collective blade pitch (TrimCase = 3)
   Azimuth-average rotor speed, RotSpeed      (rad/s)    1.26711E+00
   Period of steady state solution              (sec)    4.95868E+00
   Iterations needed to find steady state solution      85
   Displacement 2-norm of steady state solution (rad)    2.60230E-05
   Velocity 2-norm of steady state solution   (rad/s)    7.78274E-06
   Number of equally-speced azimuth steps, NAzimStep   120
   Order of linearized model, MdlOrder                   1
   Number of active (enabled) DOFs                       6 (12 states)
   Number of control inputs, NInputs                     3
   Number of input wind disturbances, NDisturbs          1
   Number of output measurements                         9


Order of States in Linearized State Matrices:

   Row/column  1 = 1st tower fore-aft bending mode DOF (internal DOF index = DOF_TFA1)
   Row/column  2 = Variable speed generator DOF (internal DOF index = DOF_GeAz)
   Row/column  3 = Drivetrain rotational-flexibility DOF (internal DOF index = DOF_DrTr)
   Row/column  4 = 1st flapwise bending-mode DOF of blade 1 (internal DOF index = DOF_BF(1,1))
   Row/column  5 = 1st flapwise bending-mode DOF of blade 2 (internal DOF index = DOF_BF(2,1))
   Row/column  6 = 1st flapwise bending-mode DOF of blade 3 (internal DOF index = DOF_BF(3,1))
   Row/column  7 to 12 = First derivatives of row/column  1 to  6.


Order of Control Inputs in Linearized State Matrices:

   Column 1 = individual pitch of blade 1       (rad)    1.53471E-01 op
   Column 2 = individual pitch of blade 2       (rad)    1.53471E-01 op
   Column 3 = individual pitch of blade 3       (rad)    1.53471E-01 op


Order of Input Wind Disturbances in Linearized State Matrices:

   Column 1 = horizontal hub-height wind speed  (m/s) : See selected wind file for op


Order of Output Measurements in Linearized State Matrices:

   Row   1 = RotSpeed   (rpm)     
   Row   2 = Q_GeAz     (rad)     
   Row   3 = QD_GeAz    (rad/s)   
   Row   4 = Q_DrTr     (rad)     
   Row   5 = QD_DrTr    (rad/s)   
   Row   6 = GenSpeed   (rpm)     
   Row   7 = QD2_TFA1   (m/s^2)   
   Row   8 = QD_TFA1    (m/s)     
   Row   9 = Q_TFA1     (m)       


Linearized State Matrices:

--------- Azimuth =   0.00 deg (with respect to AzimB1Up =   0.00 deg) ---------
op State  	|	op        	|	A - State 	          	          	          	          	          	          	          	          	          	          	          	|	B - Input 	          	          	|	Bd - Dstrb
Derivativs	|	States    	|	Matrix    	          	          	          	          	          	          	          	          	          	          	          	|	Matrix    	          	          	|	Matrix    
 1.220E-04	|	 2.377E-01	|	 0.000E+00	 0.000E+00	 0.000E+00	 0.000E+00	 0.000E+00	 0.000E+00	 1.000E+00	 0.000E+00	 0.000E+00	 0.000E+00	 0.000E+00	 0.000E+00	|	 0.000E+00	 0.000E+00	 0.000E+00	|	 0.000E+00
 1.267E+00	|	 4.708E+00	|	 0.000E+00	 0.000E+00	 0.000E+00	 0.000E+00	 0.000E+00	 0.000E+00	 0.000E+00	 1.000E+00	 0.000E+00	 0.000E+00	 0.000E+00	 0.000E+00	|	 0.000E+00	 0.000E+00	 0.000E+00	|	 0.000E+00
-2.236E-07	|	 4.818E-03	|	 0.000E+00	 0.000E+00	 0.000E+00	 0.000E+00	 0.000E+00	 0.000E+00	 0.000E+00	 0.000E+00	 1.000E+00	 0.000E+00	 0.000E+00	 0.000E+00	|	 0.000E+00	 0.000E+00	 0.000E+00	|	 0.000E+00
 3.827E-01	|	 3.024E+00	|	 0.000E+00	 0.000E+00	 0.000E+00	 0.000E+00	 0.000E+00	 0.000E+00	 0.000E+00	 0.000E+00	 0.000E+00	 1.000E+00	 0.000E+00	 0.000E+00	|	 0.000E+00	 0.000E+00	 0.000E+00	|	 0.000E+00
-1.457E-02	|	 3.517E+00	|	 0.000E+00	 0.000E+00	 0.000E+00	 0.000E+00	 0.000E+00	 0.000E+00	 0.000E+00	 0.000E+00	 0.000E+00	 0.000E+00	 1.000E+00	 0.000E+00	|	 0.000E+00	 0.000E+00	 0.000E+00	|	 0.000E+00
-3.694E-01	|	 2.999E+00	|	 0.000E+00	 0.000E+00	 0.000E+00	 0.000E+00	 0.000E+00	 0.000E+00	 0.000E+00	 0.000E+00	 0.000E+00	 0.000E+00	 0.000E+00	 1.000E+00	|	 0.000E+00	 0.000E+00	 0.000E+00	|	 0.000E+00
 5.520E-04	|	 1.220E-04	|	-4.431E+00	-3.286E-02	-1.166E+01	 1.866E-01	 7.016E-02	 8.441E-02	-5.460E-02	-8.717E-02	-1.705E-01	 9.463E-03	 4.027E-03	 4.523E-03	|	-4.843E-02	-1.336E-01	 1.466E-01	|	 4.608E-02
-5.555E-06	|	 1.267E+00	|	 1.174E-09	 4.495E-10	 1.726E+02	-4.485E-11	-3.712E-09	-5.205E-09	 3.315E-09	-2.702E+00	 1.237E+00	-5.979E-11	 1.251E-09	 4.833E-10	|	-1.656E-07	-1.550E-08	-1.843E-08	|	 5.261E-09
-2.508E-06	|	-2.236E-07	|	-2.588E-02	-9.775E-05	-1.968E+02	 1.793E-02	 1.731E-02	 1.738E-02	-4.401E-03	 2.618E+00	-1.494E+00	 1.079E-03	 1.087E-03	 8.213E-04	|	 1.768E-01	 1.622E-01	 1.770E-01	|	 5.066E-03
 2.428E-01	|	 3.827E-01	|	 1.875E+01	 6.729E+00	 8.131E+02	-2.180E+01	-8.291E-01	-8.894E-01	-1.614E+01	-1.775E+01	-1.197E+01	-4.737E+00	-4.856E-02	-4.218E-02	|	-5.583E+02	-4.285E+00	-5.903E+00	|	 9.106E+00
-5.303E-01	|	-1.457E-02	|	 6.504E+00	-2.203E+00	 7.704E+02	-7.935E-01	-2.118E+01	-6.497E-01	-8.674E-01	-1.970E+01	-1.417E+01	-4.684E-02	-4.874E+00	-3.256E-02	|	-5.636E+00	-5.681E+02	-5.874E+00	|	 9.566E+00
 2.908E-01	|	-3.694E-01	|	 7.911E+00	-4.378E+00	 7.723E+02	-8.459E-01	-6.497E-01	-2.124E+01	-8.841E+00	-1.295E+01	-7.387E+00	-4.956E-02	-4.134E-02	-4.715E+00	|	-5.631E+00	-5.042E+00	-5.705E+02	|	 9.382E+00

op Output 	|	This colmn	|	C - Output	          	          	          	          	          	          	          	          	          	          	          	|	D - Trnsmt	          	          	|	Dd - DTsmt
Measurmnts	|	is blank  	|	Matrix    	          	          	          	          	          	          	          	          	          	          	          	|	Matrix    	          	          	|	Matrix    
 1.210E+01	|	          	|	 0.000E+00	 0.000E+00	 0.000E+00	 0.000E+00	 0.000E+00	 0.000E+00	 0.000E+00	 9.549E+00	 9.549E+00	 0.000E+00	 0.000E+00	 0.000E+00	|	 0.000E+00	 0.000E+00	 0.000E+00	|	 0.000E+00
 4.708E+00	|	          	|	 0.000E+00	 1.000E+00	 0.000E+00	 0.000E+00	 0.000E+00	 0.000E+00	 0.000E+00	 0.000E+00	 0.000E+00	 0.000E+00	 0.000E+00	 0.000E+00	|	 0.000E+00	 0.000E+00	 0.000E+00	|	 0.000E+00
 1.267E+00	|	          	|	 0.000E+00	 0.000E+00	 0.000E+00	 0.000E+00	 0.000E+00	 0.000E+00	 0.000E+00	 1.000E+00	 0.000E+00	 0.000E+00	 0.000E+00	 0.000E+00	|	 0.000E+00	 0.000E+00	 0.000E+00	|	 0.000E+00
 4.818E-03	|	          	|	 0.000E+00	 0.000E+00	 1.000E+00	 0.000E+00	 0.000E+00	 0.000E+00	 0.000E+00	 0.000E+00	 0.000E+00	 0.000E+00	 0.000E+00	 0.000E+00	|	 0.000E+00	 0.000E+00	 0.000E+00	|	 0.000E+00
-2.236E-07	|	          	|	 0.000E+00	 0.000E+00	 0.000E+00	 0.000E+00	 0.000E+00	 0.000E+00	 0.000E+00	 0.000E+00	 1.000E+00	 0.000E+00	 0.000E+00	 0.000E+00	|	 0.000E+00	 0.000E+00	 0.000E+00	|	 0.000E+00
 1.174E+03	|	          	|	 0.000E+00	 0.000E+00	 0.000E+00	 0.000E+00	 0.000E+00	 0.000E+00	 0.000E+00	 9.263E+02	 0.000E+00	 0.000E+00	 0.000E+00	 0.000E+00	|	 0.000E+00	 0.000E+00	 0.000E+00	|	 0.000E+00
 5.520E-04	|	          	|	-4.431E+00	-3.286E-02	-1.166E+01	 1.866E-01	 7.016E-02	 8.441E-02	-5.460E-02	-8.717E-02	-1.705E-01	 9.463E-03	 4.027E-03	 4.523E-03	|	-4.843E-02	-1.336E-01	 1.466E-01	|	 4.608E-02
 1.220E-04	|	          	|	 0.000E+00	 0.000E+00	 0.000E+00	 0.000E+00	 0.000E+00	 0.000E+00	 1.000E+00	 0.000E+00	 0.000E+00	 0.000E+00	 0.000E+00	 0.000E+00	|	 0.000E+00	 0.000E+00	 0.000E+00	|	 0.000E+00
 2.377E-01	|	          	|	 1.000E+00	 0.000E+00	 0.000E+00	 0.000E+00	 0.000E+00	 0.000E+00	 0.000E+00	 0.000E+00	 0.000E+00	 0.000E+00	 0.000E+00	 0.000E+00	|	 0.000E+00	 0.000E+00	 0.000E+00	|	 0.000E+00


--------- Azimuth =   3.00 deg (with respect to AzimB1Up =   0.00 deg) ---------
op State  	|	op        	|	A - State 	          	          	          	          	          	          	          	          	          	          	          	|	B - Input 	          	          	|	Bd - Dstrb
Derivativs	|	States    	|	Matrix    	          	          	          	          	          	          	          	          	          	          	          	|	Matrix    	          	          	|	Matrix    
 1.435E-04	|	 2.377E-01	|	 0.000E+00	 0.000E+00	 0.000E+00	 0.000E+00	 0.000E+00	 0.000E+00	 1.000E+00	 0.000E+00	 0.000E+00	 0.000E+00	 0.000E+00	 0.000E+00	|	 0.000E+00	 0.000E+00	 0.000E+00	|	 0.000E+00
 1.267E+00	|	 4.760E+00	|	 0.000E+00	 0.000E+00	 0.000E+00	 0.000E+00	 0.000E+00	 0.000E+00	 0.000E+00	 1.000E+00	 0.000E+00	 0.000E+00	 0.000E+00	 0.000E+00	|	 0.000E+00	 0.000E+00	 0.000E+00	|	 0.000E+00
-2.872E-07	|	 4.818E-03	|	 0.000E+00	 0.000E+00	 0.000E+00	 0.000E+00	 0.000E+00	 0.000E+00	 0.000E+00	 0.000E+00	 1.000E+00	 0.000E+00	 0.000E+00	 0.000E+00	|	 0.000E+00	 0.000E+00	 0.000E+00	|	 0.000E+00
 3.922E-01	|	 3.040E+00	|	 0.000E+00	 0.000E+00	 0.000E+00	 0.000E+00	 0.000E+00	 0.000E+00	 0.000E+00	 0.000E+00	 0.000E+00	 1.000E+00	 0.000E+00	 0.000E+00	|	 0.000E+00	 0.000E+00	 0.000E+00	|	 0.000E+00
-3.646E-02	|	 3.516E+00	|	 0.000E+00	 0.000E+00	 0.000E+00	 0.000E+00	 0.000E+00	 0.000E+00	 0.000E+00	 0.000E+00	 0.000E+00	 0.000E+00	 1.000E+00	 0.000E+00	|	 0.000E+00	 0.000E+00	 0.000E+00	|	 0.000E+00
-3.569E-01	|	 2.984E+00	|	 0.000E+00	 0.000E+00	 0.000E+00	 0.000E+00	 0.000E+00	 0.000E+00	 0.000E+00	 0.000E+00	 0.000E+00	 0.000E+00	 0.000E+00	 1.000E+00	|	 0.000E+00	 0.000E+00	 0.000E+00	|	 0.000E+00
 4.862E-04	|	 1.435E-04	|	-4.431E+00	-3.285E-02	-1.166E+01	 1.860E-01	 6.705E-02	 8.805E-02	-5.460E-02	-8.661E-02	-1.699E-01	 9.434E-03	 3.880E-03	 4.690E-03	|	-6.388E-02	-1.247E-01	 1.537E-01	|	 4.606E-02
-7.552E-06	|	 1.267E+00	|	-3.499E-10	 2.052E-09	 1.726E+02	 9.228E-09	-3.189E-10	-7.559E-09	-1.051E-09	-2.702E+00	 1.237E+00	-9.816E-10	 1.657E-09	-4.933E-10	|	 8.598E-08	-5.673E-08	 2.436E-08	|	-1.733E-09
-2.337E-07	|	-2.872E-07	|	-2.588E-02	-8.214E-05	-1.968E+02	 1.793E-02	 1.729E-02	 1.740E-02	-4.398E-03	 2.618E+00	-1.494E+00	 1.087E-03	 1.080E-03	 8.211E-04	|	 1.765E-01	 1.622E-01	 1.775E-01	|	 5.063E-03
 2.171E-01	|	 3.922E-01	|	 1.870E+01	 6.774E+00	 8.129E+02	-2.179E+01	-8.154E-01	-9.040E-01	-1.590E+01	-1.795E+01	-1.218E+01	-4.743E+00	-4.774E-02	-4.282E-02	|	-5.582E+02	-4.314E+00	-5.951E+00	|	 9.112E+00
-5.290E-01	|	-3.646E-02	|	 6.187E+00	-2.532E+00	 7.692E+02	-7.787E-01	-2.118E+01	-6.482E-01	-6.483E-01	-1.955E+01	-1.403E+01	-4.650E-02	-4.874E+00	-3.250E-02	|	-5.625E+00	-5.685E+02	-5.898E+00	|	 9.576E+00
 3.159E-01	|	-3.569E-01	|	 8.284E+00	-4.096E+00	 7.736E+02	-8.611E-01	-6.504E-01	-2.125E+01	-9.303E+00	-1.290E+01	-7.327E+00	-5.045E-02	-4.118E-02	-4.711E+00	|	-5.576E+00	-5.028E+00	-5.703E+02	|	 9.368E+00

op Output 	|	This colmn	|	C - Output	          	          	          	          	          	          	          	          	          	          	          	|	D - Trnsmt	          	          	|	Dd - DTsmt
Measurmnts	|	is blank  	|	Matrix    	          	          	          	          	          	          	          	          	          	          	          	|	Matrix    	          	          	|	Matrix    
 1.210E+01	|	          	|	 0.000E+00	 0.000E+00	 0.000E+00	 0.000E+00	 0.000E+00	 0.000E+00	 0.000E+00	 9.549E+00	 9.549E+00	 0.000E+00	 0.000E+00	 0.000E+00	|	 0.000E+00	 0.000E+00	 0.000E+00	|	 0.000E+00
 4.760E+00	|	          	|	 0.000E+00	 1.000E+00	 0.000E+00	 0.000E+00	 0.000E+00	 0.000E+00	 0.000E+00	 0.000E+00	 0.000E+00	 0.000E+00	 0.000E+00	 0.000E+00	|	 0.000E+00	 0.000E+00	 0.000E+00	|	 0.000E+00
 1.267E+00	|	          	|	 0.000E+00	 0.000E+00	 0.000E+00	 0.000E+00	 0.000E+00	 0.000E+00	 0.000E+00	 1.000E+00	 0.000E+00	 0.000E+00	 0.000E+00	 0.000E+00	|	 0.000E+00	 0.000E+00	 0.000E+00	|	 0.000E+00
 4.818E-03	|	          	|	 0.000E+00	 0.000E+00	 1.000E+00	 0.000E+00	 0.000E+00	 0.000E+00	 0.000E+00	 0.000E+00	 0.000E+00	 0.000E+00	 0.000E+00	 0.000E+00	|	 0.000E+00	 0.000E+00	 0.000E+00	|	 0.000E+00
-2.872E-07	|	          	|	 0.000E+00	 0.000E+00	 0.000E+00	 0.000E+00	 0.000E+00	 0.000E+00	 0.000E+00	 0.000E+00	 1.000E+00	 0.000E+00	 0.000E+00	 0.000E+00	|	 0.000E+00	 0.000E+00	 0.000E+00	|	 0.000E+00
 1.174E+03	|	          	|	 0.000E+00	 0.000E+00	 0.000E+00	 0.000E+00	 0.000E+00	 0.000E+00	 0.000E+00	 9.263E+02	 0.000E+00	 0.000E+00	 0.000E+00	 0.000E+00	|	 0.000E+00	 0.000E+00	 0.000E+00	|	 0.000E+00
 4.861E-04	|	          	|	-4.431E+00	-3.285E-02	-1.166E+01	 1.860E-01	 6.705E-02	 8.805E-02	-5.460E-02	-8.661E-02	-1.699E-01	 9.434E-03	 3.880E-03	 4.690E-03	|	-6.388E-02	-1.247E-01	 1.537E-01	|	 4.606E-02
 1.435E-04	|	          	|	 0.000E+00	 0.000E+00	 0.000E+00	 0.000E+00	 0.000E+00	 0.000E+00	 1.000E+00	 0.000E+00	 0.000E+00	 0.000E+00	 0.000E+00	 0.000E+00	|	 0.000E+00	 0.000E+00	 0.000E+00	|	 0.000E+00
 2.377E-01	|	          	|	 1.000E+00	 0.000E+00	 0.000E+00	 0.000E+00	 0.000E+00	 0.000E+00	 0.000E+00	 0.000E+00	 0.000E+00	 0.000E+00	 0.000E+00	 0.000E+00	|	 0.000E+00	 0.000E+00	 0.000E+00	|	 0.000E+00


--------- Azimuth =   6.00 deg (with respect to AzimB1Up =   0.00 deg) ---------
op State  	|	op        	|	A - State 	          	          	          	          	          	          	          	          	          	          	          	|	B - Input 	          	          	|	Bd - Dstrb
Derivativs	|	States    	|	Matrix    	          	          	          	          	          	          	          	          	          	          	          	|	Matrix    	          	          	|	Matrix    
 1.620E-04	|	 2.378E-01	|	 0.000E+00	 0.000E+00	 0.000E+00	 0.000E+00	 0.000E+00	 0.000E+00	 1.000E+00	 0.000E+00	 0.000E+00	 0.000E+00	 0.000E+00	 0.000E+00	|	 0.000E+00	 0.000E+00	 0.000E+00	|	 0.000E+00
 1.267E+00	|	 4.812E+00	|	 0.000E+00	 0.000E+00	 0.000E+00	 0.000E+00	 0.000E+00	 0.000E+00	 0.000E+00	 1.000E+00	 0.000E+00	 0.000E+00	 0.000E+00	 0.000E+00	|	 0.000E+00	 0.000E+00	 0.000E+00	|	 0.000E+00
-2.426E-07	|	 4.818E-03	|	 0.000E+00	 0.000E+00	 0.000E+00	 0.000E+00	 0.000E+00	 0.000E+00	 0.000E+00	 0.000E+00	 1.000E+00	 0.000E+00	 0.000E+00	 0.000E+00	|	 0.000E+00	 0.000E+00	 0.000E+00	|	 0.000E+00
 4.006E-01	|	 3.056E+00	|	 0.000E+00	 0.000E+00	 0.000E+00	 0.000E+00	 0.000E+00	 0.000E+00	 0.000E+00	 0.000E+00	 0.000E+00	 1.000E+00	 0.000E+00	 0.000E+00	|	 0.000E+00	 0.000E+00	 0.000E+00	|	 0.000E+00
-5.828E-02	|	 3.514E+00	|	 0.000E+00	 0.000E+00	 0.000E+00	 0.000E+00	 0.000E+00	 0.000E+00	 0.000E+00	 0.000E+00	 0.000E+00	 0.000E+00	 1.000E+00	 0.000E+00	|	 0.000E+00	 0.000E+00	 0.000E+00	|	 0.000E+00
-3.433E-01	|	 2.969E+00	|	 0.000E+00	 0.000E+00	 0.000E+00	 0.000E+00	 0.000E+00	 0.000E+00	 0.000E+00	 0.000E+00	 0.000E+00	 0.000E+00	 0.000E+00	 1.000E+00	|	 0.000E+00	 0.000E+00	 0.000E+00	|	 0.000E+00
 4.084E-04	|	 1.620E-04	|	-4.431E+00	-3.293E-02	-1.166E+01	 1.853E-01	 6.407E-02	 9.175E-02	-5.458E-02	-8.611E-02	-1.694E-01	 9.399E-03	 3.739E-03	 4.860E-03	|	-8.114E-02	-1.156E-01	 1.610E-01	|	 4.609E-02
-9.454E-06	|	 1.267E+00	|	 3.894E-09	-1.446E-09	 1.726E+02	 3.473E-09	 8.571E-10	 4.270E-09	 5.139E-10	-2.702E+00	 1.237E+00	-9.866E-10	 3.438E-10	-3.986E-10	|	 1.889E-08	-3.348E-08	-5.615E-08	|	 2.019E-09
 2.294E-06	|	-2.426E-07	|	-2.588E-02	-7.649E-05	-1.968E+02	 1.793E-02	 1.727E-02	 1.742E-02	-4.394E-03	 2.618E+00	-1.494E+00	 1.095E-03	 1.071E-03	 8.219E-04	|	 1.759E-01	 1.622E-01	 1.780E-01	|	 5.063E-03
 1.907E-01	|	 4.006E-01	|	 1.862E+01	 6.802E+00	 8.128E+02	-2.179E+01	-8.016E-01	-9.179E-01	-1.563E+01	-1.816E+01	-1.238E+01	-4.748E+00	-4.685E-02	-4.345E-02	|	-5.581E+02	-4.360E+00	-5.986E+00	|	 9.118E+00
-5.265E-01	|	-5.828E-02	|	 5.884E+00	-2.855E+00	 7.681E+02	-7.644E-01	-2.117E+01	-6.464E-01	-4.512E-01	-1.940E+01	-1.388E+01	-4.614E-02	-4.873E+00	-3.257E-02	|	-5.609E+00	-5.689E+02	-5.921E+00	|	 9.585E+00
 3.402E-01	|	-3.433E-01	|	 8.665E+00	-3.801E+00	 7.750E+02	-8.762E-01	-6.507E-01	-2.126E+01	-9.762E+00	-1.285E+01	-7.276E+00	-5.137E-02	-4.087E-02	-4.707E+00	|	-5.512E+00	-5.019E+00	-5.700E+02	|	 9.354E+00

op Output 	|	This colmn	|	C - Output	          	          	          	          	          	          	          	          	          	          	          	|	D - Trnsmt	          	          	|	Dd - DTsmt
Measurmnts	|	is blank  	|	Matrix    	          	          	          	          	          	          	          	          	          	          	          	|	Matrix    	          	          	|	Matrix    
 1.210E+01	|	          	|	 0.000E+00	 0.000E+00	 0.000E+00	 0.000E+00	 0.000E+00	 0.000E+00	 0.000E+00	 9.549E+00	 9.549E+00	 0.000E+00	 0.000E+00	 0.000E+00	|	 0.000E+00	 0.000E+00	 0.000E+00	|	 0.000E+00
 4.812E+00	|	          	|	 0.000E+00	 1.000E+00	 0.000E+00	 0.000E+00	 0.000E+00	 0.000E+00	 0.000E+00	 0.000E+00	 0.000E+00	 0.000E+00	 0.000E+00	 0.000E+00	|	 0.000E+00	 0.000E+00	 0.000E+00	|	 0.000E+00
 1.267E+00	|	          	|	 0.000E+00	 0.000E+00	 0.000E+00	 0.000E+00	 0.000E+00	 0.000E+00	 0.000E+00	 1.000E+00	 0.000E+00	 0.000E+00	 0.000E+00	 0.000E+00	|	 0.000E+00	 0.000E+00	 0.000E+00	|	 0.000E+00
 4.818E-03	|	          	|	 0.000E+00	 0.000E+00	 1.000E+00	 0.000E+00	 0.000E+00	 0.000E+00	 0.000E+00	 0.000E+00	 0.000E+00	 0.000E+00	 0.000E+00	 0.000E+00	|	 0.000E+00	 0.000E+00	 0.000E+00	|	 0.000E+00
-2.426E-07	|	          	|	 0.000E+00	 0.000E+00	 0.000E+00	 0.000E+00	 0.000E+00	 0.000E+00	 0.000E+00	 0.000E+00	 1.000E+00	 0.000E+00	 0.000E+00	 0.000E+00	|	 0.000E+00	 0.000E+00	 0.000E+00	|	 0.000E+00
 1.174E+03	|	          	|	 0.000E+00	 0.000E+00	 0.000E+00	 0.000E+00	 0.000E+00	 0.000E+00	 0.000E+00	 9.263E+02	 0.000E+00	 0.000E+00	 0.000E+00	 0.000E+00	|	 0.000E+00	 0.000E+00	 0.000E+00	|	 0.000E+00
 4.086E-04	|	          	|	-4.431E+00	-3.293E-02	-1.166E+01	 1.853E-01	 6.407E-02	 9.175E-02	-5.458E-02	-8.611E-02	-1.694E-01	 9.399E-03	 3.739E-03	 4.860E-03	|	-8.114E-02	-1.156E-01	 1.610E-01	|	 4.609E-02
 1.620E-04	|	          	|	 0.000E+00	 0.000E+00	 0.000E+00	 0.000E+00	 0.000E+00	 0.000E+00	 1.000E+00	 0.000E+00	 0.000E+00	 0.000E+00	 0.000E+00	 0.000E+00	|	 0.000E+00	 0.000E+00	 0.000E+00	|	 0.000E+00
 2.378E-01	|	          	|	 1.000E+00	 0.000E+00	 0.000E+00	 0.000E+00	 0.000E+00	 0.000E+00	 0.000E+00	 0.000E+00	 0.000E+00	 0.000E+00	 0.000E+00	 0.000E+00	|	 0.000E+00	 0.000E+00	 0.000E+00	|	 0.000E+00


--------- Azimuth =   9.00 deg (with respect to AzimB1Up =   0.00 deg) ---------
op State  	|	op        	|	A - State 	          	          	          	          	          	          	          	          	          	          	          	|	B - Input 	          	          	|	Bd - Dstrb
Derivativs	|	States    	|	Matrix    	          	          	          	          	          	          	          	          	          	          	          	|	Matrix    	          	          	|	Matrix    
 1.771E-04	|	 2.378E-01	|	 0.000E+00	 0.000E+00	 0.000E+00	 0.000E+00	 0.000E+00	 0.000E+00	 1.000E+00	 0.000E+00	 0.000E+00	 0.000E+00	 0.000E+00	 0.000E+00	|	 0.000E+00	 0.000E+00	 0.000E+00	|	 0.000E+00
 1.267E+00	|	 4.865E+00	|	 0.000E+00	 0.000E+00	 0.000E+00	 0.000E+00	 0.000E+00	 0.000E+00	 0.000E+00	 1.000E+00	 0.000E+00	 0.000E+00	 0.000E+00	 0.000E+00	|	 0.000E+00	 0.000E+00	 0.000E+00	|	 0.000E+00
-9.760E-08	|	 4.818E-03	|	 0.000E+00	 0.000E+00	 0.000E+00	 0.000E+00	 0.000E+00	 0.000E+00	 0.000E+00	 0.000E+00	 1.000E+00	 0.000E+00	 0.000E+00	 0.000E+00	|	 0.000E+00	 0.000E+00	 0.000E+00	|	 0.000E+00
 4.079E-01	|	 3.073E+00	|	 0.000E+00	 0.000E+00	 0.000E+00	 0.000E+00	 0.000E+00	 0.000E+00	 0.000E+00	 0.000E+00	 0.000E+00	 1.000E+00	 0.000E+00	 0.000E+00	|	 0.000E+00	 0.000E+00	 0.000E+00	|	 0.000E+00
-7.996E-02	|	 3.511E+00	|	 0.000E+00	 0.000E+00	 0.000E+00	 0.000E+00	 0.000E+00	 0.000E+00	 0.000E+00	 0.000E+00	 0.000E+00	 0.000E+00	 1.000E+00	 0.000E+00	|	 0.000E+00	 0.000E+00	 0.000E+00	|	 0.000E+00
-3.287E-01	|	 2.955E+00	|	 0.000E+00	 0.000E+00	 0.000E+00	 0.000E+00	 0.000E+00	 0.000E+00	 0.000E+00	 0.000E+00	 0.000E+00	 0.000E+00	 0.000E+00	 1.000E+00	|	 0.000E+00	 0.000E+00	 0.000E+00	|	 0.000E+00
 3.227E-04	|	 1.771E-04	|	-4.431E+00	-3.307E-02	-1.166E+01	 1.844E-01	 6.123E-02	 9.551E-02	-5.458E-02	-8.570E-02	-1.690E-01	 9.362E-03	 3.604E-03	 5.036E-03	|	-9.880E-02	-1.059E-01	 1.677E-01	|	 4.613E-02
-1.056E-05	|	 1.267E+00	|	 4.256E-09	-9.771E-10	 1.726E+02	 5.566E-09	 3.239E-09	-2.013E-09	 3.004E-09	-2.702E+00	 1.237E+00	-6.976E-11	-2.741E-10	 3.438E-10	|	 6.449E-08	-5.263E-08	 8.077E-09	|	-6.894E-09
 4.525E-06	|	-9.760E-08	|	-2.588E-02	-8.286E-05	-1.968E+02	 1.792E-02	 1.726E-02	 1.744E-02	-4.389E-03	 2.618E+00	-1.494E+00	 1.103E-03	 1.063E-03	 8.226E-04	|	 1.753E-01	 1.624E-01	 1.784E-01	|	 5.063E-03
 1.639E-01	|	 4.079E-01	|	 1.852E+01	 6.812E+00	 8.125E+02	-2.178E+01	-7.883E-01	-9.317E-01	-1.535E+01	-1.835E+01	-1.258E+01	-4.753E+00	-4.596E-02	-4.413E-02	|	-5.580E+02	-4.412E+00	-6.025E+00	|	 9.125E+00
-5.227E-01	|	-7.996E-02	|	 5.594E+00	-3.170E+00	 7.669E+02	-7.506E-01	-2.117E+01	-6.444E-01	-2.767E-01	-1.924E+01	-1.372E+01	-4.574E-02	-4.872E+00	-3.251E-02	|	-5.592E+00	-5.692E+02	-5.944E+00	|	 9.593E+00
 3.636E-01	|	-3.287E-01	|	 9.053E+00	-3.496E+00	 7.763E+02	-8.911E-01	-6.510E-01	-2.128E+01	-1.022E+01	-1.282E+01	-7.237E+00	-5.230E-02	-4.061E-02	-4.703E+00	|	-5.439E+00	-5.017E+00	-5.697E+02	|	 9.340E+00

op Output 	|	This colmn	|	C - Output	          	          	          	          	          	          	          	          	          	          	          	|	D - Trnsmt	          	          	|	Dd - DTsmt
Measurmnts	|	is blank  	|	Matrix    	          	          	          	          	          	          	          	          	          	          	          	|	Matrix    	          	          	|	Matrix    
 1.210E+01	|	          	|	 0.000E+00	 0.000E+00	 0.000E+00	 0.000E+00	 0.000E+00	 0.000E+00	 0.000E+00	 9.549E+00	 9.549E+00	 0.000E+00	 0.000E+00	 0.000E+00	|	 0.000E+00	 0.000E+00	 0.000E+00	|	 0.000E+00
 4.865E+00	|	          	|	 0.000E+00	 1.000E+00	 0.000E+00	 0.000E+00	 0.000E+00	 0.000E+00	 0.000E+00	 0.000E+00	 0.000E+00	 0.000E+00	 0.000E+00	 0.000E+00	|	 0.000E+00	 0.000E+00	 0.000E+00	|	 0.000E+00
 1.267E+00	|	          	|	 0.000E+00	 0.000E+00	 0.000E+00	 0.000E+00	 0.000E+00	 0.000E+00	 0.000E+00	 1.000E+00	 0.000E+00	 0.000E+00	 0.000E+00	 0.000E+00	|	 0.000E+00	 0.000E+00	 0.000E+00	|	 0.000E+00
 4.818E-03	|	          	|	 0.000E+00	 0.000E+00	 1.000E+00	 0.000E+00	 0.000E+00	 0.000E+00	 0.000E+00	 0.000E+00	 0.000E+00	 0.000E+00	 0.000E+00	 0.000E+00	|	 0.000E+00	 0.000E+00	 0.000E+00	|	 0.000E+00
-9.760E-08	|	          	|	 0.000E+00	 0.000E+00	 0.000E+00	 0.000E+00	 0.000E+00	 0.000E+00	 0.000E+00	 0.000E+00	 1.000E+00	 0.000E+00	 0.000E+00	 0.000E+00	|	 0.000E+00	 0.000E+00	 0.000E+00	|	 0.000E+00
 1.174E+03	|	          	|	 0.000E+00	 0.000E+00	 0.000E+00	 0.000E+00	 0.000E+00	 0.000E+00	 0.000E+00	 9.263E+02	 0.000E+00	 0.000E+00	 0.000E+00	 0.000E+00	|	 0.000E+00	 0.000E+00	 0.000E+00	|	 0.000E+00
 3.226E-04	|	          	|	-4.431E+00	-3.307E-02	-1.166E+01	 1.844E-01	 6.123E-02	 9.551E-02	-5.458E-02	-8.570E-02	-1.690E-01	 9.362E-03	 3.604E-03	 5.036E-03	|	-9.880E-02	-1.059E-01	 1.677E-01	|	 4.613E-02
 1.771E-04	|	          	|	 0.000E+00	 0.000E+00	 0.000E+00	 0.000E+00	 0.000E+00	 0.000E+00	 1.000E+00	 0.000E+00	 0.000E+00	 0.000E+00	 0.000E+00	 0.000E+00	|	 0.000E+00	 0.000E+00	 0.000E+00	|	 0.000E+00
 2.378E-01	|	          	|	 1.000E+00	 0.000E+00	 0.000E+00	 0.000E+00	 0.000E+00	 0.000E+00	 0.000E+00	 0.000E+00	 0.000E+00	 0.000E+00	 0.000E+00	 0.000E+00	|	 0.000E+00	 0.000E+00	 0.000E+00	|	 0.000E+00


--------- Azimuth =  12.00 deg (with respect to AzimB1Up =   0.00 deg) ---------
op State  	|	op        	|	A - State 	          	          	          	          	          	          	          	          	          	          	          	|	B - Input 	          	          	|	Bd - Dstrb
Derivativs	|	States    	|	Matrix    	          	          	          	          	          	          	          	          	          	          	          	|	Matrix    	          	          	|	Matrix    
 1.883E-04	|	 2.378E-01	|	 0.000E+00	 0.000E+00	 0.000E+00	 0.000E+00	 0.000E+00	 0.000E+00	 1.000E+00	 0.000E+00	 0.000E+00	 0.000E+00	 0.000E+00	 0.000E+00	|	 0.000E+00	 0.000E+00	 0.000E+00	|	 0.000E+00
 1.267E+00	|	 4.917E+00	|	 0.000E+00	 0.000E+00	 0.000E+00	 0.000E+00	 0.000E+00	 0.000E+00	 0.000E+00	 1.000E+00	 0.000E+00	 0.000E+00	 0.000E+00	 0.000E+00	|	 0.000E+00	 0.000E+00	 0.000E+00	|	 0.000E+00
 8.797E-08	|	 4.818E-03	|	 0.000E+00	 0.000E+00	 0.000E+00	 0.000E+00	 0.000E+00	 0.000E+00	 0.000E+00	 0.000E+00	 1.000E+00	 0.000E+00	 0.000E+00	 0.000E+00	|	 0.000E+00	 0.000E+00	 0.000E+00	|	 0.000E+00
 4.141E-01	|	 3.090E+00	|	 0.000E+00	 0.000E+00	 0.000E+00	 0.000E+00	 0.000E+00	 0.000E+00	 0.000E+00	 0.000E+00	 0.000E+00	 1.000E+00	 0.000E+00	 0.000E+00	|	 0.000E+00	 0.000E+00	 0.000E+00	|	 0.000E+00
-1.015E-01	|	 3.507E+00	|	 0.000E+00	 0.000E+00	 0.000E+00	 0.000E+00	 0.000E+00	 0.000E+00	 0.000E+00	 0.000E+00	 0.000E+00	 0.000E+00	 1.000E+00	 0.000E+00	|	 0.000E+00	 0.000E+00	 0.000E+00	|	 0.000E+00
-3.133E-01	|	 2.942E+00	|	 0.000E+00	 0.000E+00	 0.000E+00	 0.000E+00	 0.000E+00	 0.000E+00	 0.000E+00	 0.000E+00	 0.000E+00	 0.000E+00	 0.000E+00	 1.000E+00	|	 0.000E+00	 0.000E+00	 0.000E+00	|	 0.000E+00
 2.156E-04	|	 1.883E-04	|	-4.431E+00	-3.336E-02	-1.166E+01	 1.833E-01	 5.853E-02	 9.932E-02	-5.459E-02	-8.547E-02	-1.687E-01	 9.303E-03	 3.479E-03	 5.211E-03	|	-1.161E-01	-9.584E-02	 1.742E-01	|	 4.617E-02
-1.036E-05	|	 1.267E+00	|	-1.079E-09	-3.700E-09	 1.726E+02	-9.866E-10	-7.674E-10	 4.903E-09	 6.312E-09	-2.702E+00	 1.237E+00	 1.236E-09	-2.277E-09	 7.773E-10	|	 0.000E+00	 1.449E-07	 1.126E-07	|	-1.261E-08
 4.040E-06	|	 8.797E-08	|	-2.587E-02	-1.131E-04	-1.968E+02	 1.792E-02	 1.724E-02	 1.746E-02	-4.387E-03	 2.618E+00	-1.494E+00	 1.109E-03	 1.055E-03	 8.243E-04	|	 1.747E-01	 1.626E-01	 1.788E-01	|	 5.061E-03
 1.367E-01	|	 4.141E-01	|	 1.840E+01	 6.804E+00	 8.122E+02	-2.177E+01	-7.755E-01	-9.451E-01	-1.505E+01	-1.854E+01	-1.277E+01	-4.758E+00	-4.511E-02	-4.471E-02	|	-5.580E+02	-4.465E+00	-6.061E+00	|	 9.133E+00
-5.175E-01	|	-1.015E-01	|	 5.319E+00	-3.476E+00	 7.659E+02	-7.371E-01	-2.116E+01	-6.425E-01	-1.255E-01	-1.907E+01	-1.356E+01	-4.538E-02	-4.871E+00	-3.242E-02	|	-5.575E+00	-5.696E+02	-5.962E+00	|	 9.600E+00
 3.861E-01	|	-3.133E-01	|	 9.447E+00	-3.179E+00	 7.777E+02	-9.058E-01	-6.511E-01	-2.129E+01	-1.067E+01	-1.280E+01	-7.208E+00	-5.311E-02	-4.027E-02	-4.699E+00	|	-5.363E+00	-5.021E+00	-5.694E+02	|	 9.326E+00

op Output 	|	This colmn	|	C - Output	          	          	          	          	          	          	          	          	          	          	          	|	D - Trnsmt	          	          	|	Dd - DTsmt
Measurmnts	|	is blank  	|	Matrix    	          	          	          	          	          	          	          	          	          	          	          	|	Matrix    	          	          	|	Matrix    
 1.210E+01	|	          	|	 0.000E+00	 0.000E+00	 0.000E+00	 0.000E+00	 0.000E+00	 0.000E+00	 0.000E+00	 9.549E+00	 9.549E+00	 0.000E+00	 0.000E+00	 0.000E+00	|	 0.000E+00	 0.000E+00	 0.000E+00	|	 0.000E+00
 4.917E+00	|	          	|	 0.000E+00	 1.000E+00	 0.000E+00	 0.000E+00	 0.000E+00	 0.000E+00	 0.000E+00	 0.000E+00	 0.000E+00	 0.000E+00	 0.000E+00	 0.000E+00	|	 0.000E+00	 0.000E+00	 0.000E+00	|	 0.000E+00
 1.267E+00	|	          	|	 0.000E+00	 0.000E+00	 0.000E+00	 0.000E+00	 0.000E+00	 0.000E+00	 0.000E+00	 1.000E+00	 0.000E+00	 0.000E+00	 0.000E+00	 0.000E+00	|	 0.000E+00	 0.000E+00	 0.000E+00	|	 0.000E+00
 4.818E-03	|	          	|	 0.000E+00	 0.000E+00	 1.000E+00	 0.000E+00	 0.000E+00	 0.000E+00	 0.000E+00	 0.000E+00	 0.000E+00	 0.000E+00	 0.000E+00	 0.000E+00	|	 0.000E+00	 0.000E+00	 0.000E+00	|	 0.000E+00
 8.797E-08	|	          	|	 0.000E+00	 0.000E+00	 0.000E+00	 0.000E+00	 0.000E+00	 0.000E+00	 0.000E+00	 0.000E+00	 1.000E+00	 0.000E+00	 0.000E+00	 0.000E+00	|	 0.000E+00	 0.000E+00	 0.000E+00	|	 0.000E+00
 1.174E+03	|	          	|	 0.000E+00	 0.000E+00	 0.000E+00	 0.000E+00	 0.000E+00	 0.000E+00	 0.000E+00	 9.263E+02	 0.000E+00	 0.000E+00	 0.000E+00	 0.000E+00	|	 0.000E+00	 0.000E+00	 0.000E+00	|	 0.000E+00
 2.157E-04	|	          	|	-4.431E+00	-3.336E-02	-1.166E+01	 1.833E-01	 5.853E-02	 9.932E-02	-5.459E-02	-8.547E-02	-1.687E-01	 9.303E-03	 3.479E-03	 5.211E-03	|	-1.161E-01	-9.584E-02	 1.742E-01	|	 4.617E-02
 1.883E-04	|	          	|	 0.000E+00	 0.000E+00	 0.000E+00	 0.000E+00	 0.000E+00	 0.000E+00	 1.000E+00	 0.000E+00	 0.000E+00	 0.000E+00	 0.000E+00	 0.000E+00	|	 0.000E+00	 0.000E+00	 0.000E+00	|	 0.000E+00
 2.378E-01	|	          	|	 1.000E+00	 0.000E+00	 0.000E+00	 0.000E+00	 0.000E+00	 0.000E+00	 0.000E+00	 0.000E+00	 0.000E+00	 0.000E+00	 0.000E+00	 0.000E+00	|	 0.000E+00	 0.000E+00	 0.000E+00	|	 0.000E+00


--------- Azimuth =  15.00 deg (with respect to AzimB1Up =   0.00 deg) ---------
op State  	|	op        	|	A - State 	          	          	          	          	          	          	          	          	          	          	          	|	B - Input 	          	          	|	Bd - Dstrb
Derivativs	|	States    	|	Matrix    	          	          	          	          	          	          	          	          	          	          	          	|	Matrix    	          	          	|	Matrix    
 1.947E-04	|	 2.378E-01	|	 0.000E+00	 0.000E+00	 0.000E+00	 0.000E+00	 0.000E+00	 0.000E+00	 1.000E+00	 0.000E+00	 0.000E+00	 0.000E+00	 0.000E+00	 0.000E+00	|	 0.000E+00	 0.000E+00	 0.000E+00	|	 0.000E+00
 1.267E+00	|	 4.969E+00	|	 0.000E+00	 0.000E+00	 0.000E+00	 0.000E+00	 0.000E+00	 0.000E+00	 0.000E+00	 1.000E+00	 0.000E+00	 0.000E+00	 0.000E+00	 0.000E+00	|	 0.000E+00	 0.000E+00	 0.000E+00	|	 0.000E+00
 1.994E-07	|	 4.818E-03	|	 0.000E+00	 0.000E+00	 0.000E+00	 0.000E+00	 0.000E+00	 0.000E+00	 0.000E+00	 0.000E+00	 1.000E+00	 0.000E+00	 0.000E+00	 0.000E+00	|	 0.000E+00	 0.000E+00	 0.000E+00	|	 0.000E+00