
This linearized model file was generated by FAST (v7.02.00d-bjj, 20-Feb-2013) on 12-Jul-2018 at 22:09:07.
The aerodynamic calculations were made by AeroDyn (v13.00.02a-bjj, 20-Feb-2013).

 NREL 5.0 MW Baseline Wind Turbine for Use in Offshore Analysis.


Some Useful Information:

   Type of steady state solution found                Trimmed collective blade pitch (TrimCase = 3)
   Azimuth-average rotor speed, RotSpeed      (rad/s)    1.26711E+00
   Period of steady state solution              (sec)    4.95868E+00
   Iterations needed to find steady state solution      60
   Displacement 2-norm of steady state solution (rad)    7.91849E-05
   Velocity 2-norm of steady state solution   (rad/s)    3.45501E-06
   Number of equally-speced azimuth steps, NAzimStep   120
   Order of linearized model, MdlOrder                   1
   Number of active (enabled) DOFs                       6 (12 states)
   Number of control inputs, NInputs                     3
   Number of input wind disturbances, NDisturbs          1
   Number of output measurements                         9


Order of States in Linearized State Matrices:

   Row/column  1 = 1st tower fore-aft bending mode DOF (internal DOF index = DOF_TFA1)
   Row/column  2 = Variable speed generator DOF (internal DOF index = DOF_GeAz)
   Row/column  3 = Drivetrain rotational-flexibility DOF (internal DOF index = DOF_DrTr)
   Row/column  4 = 1st flapwise bending-mode DOF of blade 1 (internal DOF index = DOF_BF(1,1))
   Row/column  5 = 1st flapwise bending-mode DOF of blade 2 (internal DOF index = DOF_BF(2,1))
   Row/column  6 = 1st flapwise bending-mode DOF of blade 3 (internal DOF index = DOF_BF(3,1))
   Row/column  7 to 12 = First derivatives of row/column  1 to  6.


Order of Control Inputs in Linearized State Matrices:

   Column 1 = individual pitch of blade 1       (rad)    2.62224E-01 op
   Column 2 = individual pitch of blade 2       (rad)    2.62224E-01 op
   Column 3 = individual pitch of blade 3       (rad)    2.62224E-01 op


Order of Input Wind Disturbances in Linearized State Matrices:

   Column 1 = horizontal hub-height wind speed  (m/s) : See selected wind file for op


Order of Output Measurements in Linearized State Matrices:

   Row   1 = RotSpeed   (rpm)     
   Row   2 = Q_GeAz     (rad)     
   Row   3 = QD_GeAz    (rad/s)   
   Row   4 = Q_DrTr     (rad)     
   Row   5 = QD_DrTr    (rad/s)   
   Row   6 = GenSpeed   (rpm)     
   Row   7 = QD2_TFA1   (m/s^2)   
   Row   8 = QD_TFA1    (m/s)     
   Row   9 = Q_TFA1     (m)       


Linearized State Matrices:

--------- Azimuth =   0.00 deg (with respect to AzimB1Up =   0.00 deg) ---------
op State  	|	op        	|	A - State 	          	          	          	          	          	          	          	          	          	          	          	|	B - Input 	          	          	|	Bd - Dstrb
Derivativs	|	States    	|	Matrix    	          	          	          	          	          	          	          	          	          	          	          	|	Matrix    	          	          	|	Matrix    
 3.376E-04	|	 1.789E-01	|	 0.000E+00	 0.000E+00	 0.000E+00	 0.000E+00	 0.000E+00	 0.000E+00	 1.000E+00	 0.000E+00	 0.000E+00	 0.000E+00	 0.000E+00	 0.000E+00	|	 0.000E+00	 0.000E+00	 0.000E+00	|	 0.000E+00
 1.267E+00	|	 4.708E+00	|	 0.000E+00	 0.000E+00	 0.000E+00	 0.000E+00	 0.000E+00	 0.000E+00	 0.000E+00	 1.000E+00	 0.000E+00	 0.000E+00	 0.000E+00	 0.000E+00	|	 0.000E+00	 0.000E+00	 0.000E+00	|	 0.000E+00
-1.593E-06	|	 4.818E-03	|	 0.000E+00	 0.000E+00	 0.000E+00	 0.000E+00	 0.000E+00	 0.000E+00	 0.000E+00	 0.000E+00	 1.000E+00	 0.000E+00	 0.000E+00	 0.000E+00	|	 0.000E+00	 0.000E+00	 0.000E+00	|	 0.000E+00
 3.682E-01	|	 1.768E+00	|	 0.000E+00	 0.000E+00	 0.000E+00	 0.000E+00	 0.000E+00	 0.000E+00	 0.000E+00	 0.000E+00	 0.000E+00	 1.000E+00	 0.000E+00	 0.000E+00	|	 0.000E+00	 0.000E+00	 0.000E+00	|	 0.000E+00
-1.370E-02	|	 2.228E+00	|	 0.000E+00	 0.000E+00	 0.000E+00	 0.000E+00	 0.000E+00	 0.000E+00	 0.000E+00	 0.000E+00	 0.000E+00	 0.000E+00	 1.000E+00	 0.000E+00	|	 0.000E+00	 0.000E+00	 0.000E+00	|	 0.000E+00
-3.576E-01	|	 1.731E+00	|	 0.000E+00	 0.000E+00	 0.000E+00	 0.000E+00	 0.000E+00	 0.000E+00	 0.000E+00	 0.000E+00	 0.000E+00	 0.000E+00	 0.000E+00	 1.000E+00	|	 0.000E+00	 0.000E+00	 0.000E+00	|	 0.000E+00
 1.292E-03	|	 3.376E-04	|	-4.424E+00	-3.192E-02	-1.579E+01	 1.861E-01	 7.093E-02	 8.947E-02	-5.723E-02	-5.350E-02	-1.664E-01	 1.050E-02	 4.650E-03	 5.515E-03	|	-1.692E-01	-1.515E-01	 1.799E-01	|	 4.711E-02
-4.682E-05	|	 1.267E+00	|	-6.071E-09	 3.648E-09	 1.726E+02	 3.368E-09	-1.933E-09	 1.734E-09	-9.072E-09	-2.702E+00	 1.237E+00	-8.172E-10	 3.269E-09	 4.983E-10	|	-1.141E-07	-1.537E-07	-4.690E-08	|	 8.986E-09
 2.278E-05	|	-1.593E-06	|	-3.504E-02	-3.973E-04	-1.984E+02	 2.526E-02	 2.432E-02	 2.445E-02	-1.302E-03	 2.696E+00	-1.428E+00	 2.320E-03	 2.432E-03	 1.913E-03	|	 2.298E-01	 2.185E-01	 2.388E-01	|	 1.932E-03
 2.054E-01	|	 3.682E-01	|	 1.877E+01	 6.473E+00	 1.145E+03	-2.224E+01	-1.295E+00	-1.373E+00	-1.831E+01	-8.957E+01	-8.141E+01	-5.581E+00	-1.188E-01	-1.004E-01	|	-6.468E+02	-8.482E+00	-1.063E+01	|	 9.589E+00
-4.836E-01	|	-1.370E-02	|	 6.029E+00	-2.328E+00	 1.092E+03	-1.267E+00	-2.138E+01	-1.123E+00	-1.405E+00	-9.558E+01	-8.774E+01	-1.089E-01	-5.740E+00	-8.628E-02	|	-9.453E+00	-6.655E+02	-1.022E+01	|	 9.916E+00
 2.959E-01	|	-3.576E-01	|	 8.742E+00	-3.960E+00	 1.097E+03	-1.335E+00	-1.124E+00	-2.146E+01	-9.362E+00	-7.984E+01	-7.196E+01	-1.129E-01	-1.088E-01	-5.298E+00	|	-9.385E+00	-8.938E+00	-6.305E+02	|	 9.581E+00

op Output 	|	This colmn	|	C - Output	          	          	          	          	          	          	          	          	          	          	          	|	D - Trnsmt	          	          	|	Dd - DTsmt
Measurmnts	|	is blank  	|	Matrix    	          	          	          	          	          	          	          	          	          	          	          	|	Matrix    	          	          	|	Matrix    
 1.210E+01	|	          	|	 0.000E+00	 0.000E+00	 0.000E+00	 0.000E+00	 0.000E+00	 0.000E+00	 0.000E+00	 9.549E+00	 9.549E+00	 0.000E+00	 0.000E+00	 0.000E+00	|	 0.000E+00	 0.000E+00	 0.000E+00	|	 0.000E+00
 4.708E+00	|	          	|	 0.000E+00	 1.000E+00	 0.000E+00	 0.000E+00	 0.000E+00	 0.000E+00	 0.000E+00	 0.000E+00	 0.000E+00	 0.000E+00	 0.000E+00	 0.000E+00	|	 0.000E+00	 0.000E+00	 0.000E+00	|	 0.000E+00
 1.267E+00	|	          	|	 0.000E+00	 0.000E+00	 0.000E+00	 0.000E+00	 0.000E+00	 0.000E+00	 0.000E+00	 1.000E+00	 0.000E+00	 0.000E+00	 0.000E+00	 0.000E+00	|	 0.000E+00	 0.000E+00	 0.000E+00	|	 0.000E+00
 4.818E-03	|	          	|	 0.000E+00	 0.000E+00	 1.000E+00	 0.000E+00	 0.000E+00	 0.000E+00	 0.000E+00	 0.000E+00	 0.000E+00	 0.000E+00	 0.000E+00	 0.000E+00	|	 0.000E+00	 0.000E+00	 0.000E+00	|	 0.000E+00
-1.593E-06	|	          	|	 0.000E+00	 0.000E+00	 0.000E+00	 0.000E+00	 0.000E+00	 0.000E+00	 0.000E+00	 0.000E+00	 1.000E+00	 0.000E+00	 0.000E+00	 0.000E+00	|	 0.000E+00	 0.000E+00	 0.000E+00	|	 0.000E+00
 1.174E+03	|	          	|	 0.000E+00	 0.000E+00	 0.000E+00	 0.000E+00	 0.000E+00	 0.000E+00	 0.000E+00	 9.263E+02	 0.000E+00	 0.000E+00	 0.000E+00	 0.000E+00	|	 0.000E+00	 0.000E+00	 0.000E+00	|	 0.000E+00
 1.292E-03	|	          	|	-4.424E+00	-3.192E-02	-1.579E+01	 1.861E-01	 7.093E-02	 8.947E-02	-5.723E-02	-5.350E-02	-1.664E-01	 1.050E-02	 4.650E-03	 5.515E-03	|	-1.692E-01	-1.515E-01	 1.799E-01	|	 4.711E-02
 3.376E-04	|	          	|	 0.000E+00	 0.000E+00	 0.000E+00	 0.000E+00	 0.000E+00	 0.000E+00	 1.000E+00	 0.000E+00	 0.000E+00	 0.000E+00	 0.000E+00	 0.000E+00	|	 0.000E+00	 0.000E+00	 0.000E+00	|	 0.000E+00
 1.789E-01	|	          	|	 1.000E+00	 0.000E+00	 0.000E+00	 0.000E+00	 0.000E+00	 0.000E+00	 0.000E+00	 0.000E+00	 0.000E+00	 0.000E+00	 0.000E+00	 0.000E+00	|	 0.000E+00	 0.000E+00	 0.000E+00	|	 0.000E+00


--------- Azimuth =   3.00 deg (with respect to AzimB1Up =   0.00 deg) ---------
op State  	|	op        	|	A - State 	          	          	          	          	          	          	          	          	          	          	          	|	B - Input 	          	          	|	Bd - Dstrb
Derivativs	|	States    	|	Matrix    	          	          	          	          	          	          	          	          	          	          	          	|	Matrix    	          	          	|	Matrix    
 3.866E-04	|	 1.789E-01	|	 0.000E+00	 0.000E+00	 0.000E+00	 0.000E+00	 0.000E+00	 0.000E+00	 1.000E+00	 0.000E+00	 0.000E+00	 0.000E+00	 0.000E+00	 0.000E+00	|	 0.000E+00	 0.000E+00	 0.000E+00	|	 0.000E+00
 1.267E+00	|	 4.760E+00	|	 0.000E+00	 0.000E+00	 0.000E+00	 0.000E+00	 0.000E+00	 0.000E+00	 0.000E+00	 1.000E+00	 0.000E+00	 0.000E+00	 0.000E+00	 0.000E+00	|	 0.000E+00	 0.000E+00	 0.000E+00	|	 0.000E+00
-8.371E-07	|	 4.817E-03	|	 0.000E+00	 0.000E+00	 0.000E+00	 0.000E+00	 0.000E+00	 0.000E+00	 0.000E+00	 0.000E+00	 1.000E+00	 0.000E+00	 0.000E+00	 0.000E+00	|	 0.000E+00	 0.000E+00	 0.000E+00	|	 0.000E+00
 3.762E-01	|	 1.783E+00	|	 0.000E+00	 0.000E+00	 0.000E+00	 0.000E+00	 0.000E+00	 0.000E+00	 0.000E+00	 0.000E+00	 0.000E+00	 1.000E+00	 0.000E+00	 0.000E+00	|	 0.000E+00	 0.000E+00	 0.000E+00	|	 0.000E+00
-3.367E-02	|	 2.227E+00	|	 0.000E+00	 0.000E+00	 0.000E+00	 0.000E+00	 0.000E+00	 0.000E+00	 0.000E+00	 0.000E+00	 0.000E+00	 0.000E+00	 1.000E+00	 0.000E+00	|	 0.000E+00	 0.000E+00	 0.000E+00	|	 0.000E+00
-3.449E-01	|	 1.716E+00	|	 0.000E+00	 0.000E+00	 0.000E+00	 0.000E+00	 0.000E+00	 0.000E+00	 0.000E+00	 0.000E+00	 0.000E+00	 0.000E+00	 0.000E+00	 1.000E+00	|	 0.000E+00	 0.000E+00	 0.000E+00	|	 0.000E+00
 1.072E-03	|	 3.866E-04	|	-4.424E+00	-3.219E-02	-1.579E+01	 1.855E-01	 6.799E-02	 9.306E-02	-5.723E-02	-5.346E-02	-1.663E-01	 1.043E-02	 4.524E-03	 5.696E-03	|	-1.858E-01	-1.385E-01	 1.855E-01	|	 4.701E-02
-5.422E-05	|	 1.267E+00	|	-2.765E-08	 1.251E-09	 1.726E+02	-6.358E-09	 2.870E-09	-3.787E-09	 1.940E-09	-2.702E+00	 1.237E+00	 1.017E-09	-2.232E-09	-1.096E-09	|	-2.866E-08	 2.569E-07	 8.546E-08	|	-9.604E-09
 1.319E-05	|	-8.371E-07	|	-3.505E-02	-4.028E-04	-1.984E+02	 2.525E-02	 2.430E-02	 2.448E-02	-1.296E-03	 2.696E+00	-1.428E+00	 2.332E-03	 2.423E-03	 1.913E-03	|	 2.294E-01	 2.185E-01	 2.396E-01	|	 1.919E-03
 1.804E-01	|	 3.762E-01	|	 1.867E+01	 6.489E+00	 1.145E+03	-2.223E+01	-1.281E+00	-1.387E+00	-1.808E+01	-9.004E+01	-8.189E+01	-5.587E+00	-1.184E-01	-1.017E-01	|	-6.477E+02	-8.539E+00	-1.069E+01	|	 9.608E+00
-4.828E-01	|	-3.367E-02	|	 5.741E+00	-2.632E+00	 1.091E+03	-1.253E+00	-2.137E+01	-1.122E+00	-1.135E+00	-9.528E+01	-8.745E+01	-1.095E-01	-5.737E+00	-8.700E-02	|	-9.424E+00	-6.651E+02	-1.025E+01	|	 9.912E+00
 3.217E-01	|	-3.449E-01	|	 9.127E+00	-3.672E+00	 1.099E+03	-1.350E+00	-1.124E+00	-2.148E+01	-9.858E+00	-7.970E+01	-7.180E+01	-1.144E-01	-1.088E-01	-5.292E+00	|	-9.337E+00	-8.952E+00	-6.302E+02	|	 9.572E+00

op Output 	|	This colmn	|	C - Output	          	          	          	          	          	          	          	          	          	          	          	|	D - Trnsmt	          	          	|	Dd - DTsmt
Measurmnts	|	is blank  	|	Matrix    	          	          	          	          	          	          	          	          	          	          	          	|	Matrix    	          	          	|	Matrix    
 1.210E+01	|	          	|	 0.000E+00	 0.000E+00	 0.000E+00	 0.000E+00	 0.000E+00	 0.000E+00	 0.000E+00	 9.549E+00	 9.549E+00	 0.000E+00	 0.000E+00	 0.000E+00	|	 0.000E+00	 0.000E+00	 0.000E+00	|	 0.000E+00
 4.760E+00	|	          	|	 0.000E+00	 1.000E+00	 0.000E+00	 0.000E+00	 0.000E+00	 0.000E+00	 0.000E+00	 0.000E+00	 0.000E+00	 0.000E+00	 0.000E+00	 0.000E+00	|	 0.000E+00	 0.000E+00	 0.000E+00	|	 0.000E+00
 1.267E+00	|	          	|	 0.000E+00	 0.000E+00	 0.000E+00	 0.000E+00	 0.000E+00	 0.000E+00	 0.000E+00	 1.000E+00	 0.000E+00	 0.000E+00	 0.000E+00	 0.000E+00	|	 0.000E+00	 0.000E+00	 0.000E+00	|	 0.000E+00
 4.817E-03	|	          	|	 0.000E+00	 0.000E+00	 1.000E+00	 0.000E+00	 0.000E+00	 0.000E+00	 0.000E+00	 0.000E+00	 0.000E+00	 0.000E+00	 0.000E+00	 0.000E+00	|	 0.000E+00	 0.000E+00	 0.000E+00	|	 0.000E+00
-8.371E-07	|	          	|	 0.000E+00	 0.000E+00	 0.000E+00	 0.000E+00	 0.000E+00	 0.000E+00	 0.000E+00	 0.000E+00	 1.000E+00	 0.000E+00	 0.000E+00	 0.000E+00	|	 0.000E+00	 0.000E+00	 0.000E+00	|	 0.000E+00
 1.174E+03	|	          	|	 0.000E+00	 0.000E+00	 0.000E+00	 0.000E+00	 0.000E+00	 0.000E+00	 0.000E+00	 9.263E+02	 0.000E+00	 0.000E+00	 0.000E+00	 0.000E+00	|	 0.000E+00	 0.000E+00	 0.000E+00	|	 0.000E+00
 1.072E-03	|	          	|	-4.424E+00	-3.219E-02	-1.579E+01	 1.855E-01	 6.799E-02	 9.306E-02	-5.723E-02	-5.346E-02	-1.663E-01	 1.043E-02	 4.524E-03	 5.696E-03	|	-1.858E-01	-1.385E-01	 1.855E-01	|	 4.701E-02
 3.866E-04	|	          	|	 0.000E+00	 0.000E+00	 0.000E+00	 0.000E+00	 0.000E+00	 0.000E+00	 1.000E+00	 0.000E+00	 0.000E+00	 0.000E+00	 0.000E+00	 0.000E+00	|	 0.000E+00	 0.000E+00	 0.000E+00	|	 0.000E+00
 1.789E-01	|	          	|	 1.000E+00	 0.000E+00	 0.000E+00	 0.000E+00	 0.000E+00	 0.000E+00	 0.000E+00	 0.000E+00	 0.000E+00	 0.000E+00	 0.000E+00	 0.000E+00	|	 0.000E+00	 0.000E+00	 0.000E+00	|	 0.000E+00


--------- Azimuth =   6.00 deg (with respect to AzimB1Up =   0.00 deg) ---------
op State  	|	op        	|	A - State 	          	          	          	          	          	          	          	          	          	          	          	|	B - Input 	          	          	|	Bd - Dstrb
Derivativs	|	States    	|	Matrix    	          	          	          	          	          	          	          	          	          	          	          	|	Matrix    	          	          	|	Matrix    
 4.259E-04	|	 1.789E-01	|	 0.000E+00	 0.000E+00	 0.000E+00	 0.000E+00	 0.000E+00	 0.000E+00	 1.000E+00	 0.000E+00	 0.000E+00	 0.000E+00	 0.000E+00	 0.000E+00	|	 0.000E+00	 0.000E+00	 0.000E+00	|	 0.000E+00
 1.267E+00	|	 4.812E+00	|	 0.000E+00	 0.000E+00	 0.000E+00	 0.000E+00	 0.000E+00	 0.000E+00	 0.000E+00	 1.000E+00	 0.000E+00	 0.000E+00	 0.000E+00	 0.000E+00	|	 0.000E+00	 0.000E+00	 0.000E+00	|	 0.000E+00
-5.349E-07	|	 4.817E-03	|	 0.000E+00	 0.000E+00	 0.000E+00	 0.000E+00	 0.000E+00	 0.000E+00	 0.000E+00	 0.000E+00	 1.000E+00	 0.000E+00	 0.000E+00	 0.000E+00	|	 0.000E+00	 0.000E+00	 0.000E+00	|	 0.000E+00
 3.831E-01	|	 1.799E+00	|	 0.000E+00	 0.000E+00	 0.000E+00	 0.000E+00	 0.000E+00	 0.000E+00	 0.000E+00	 0.000E+00	 0.000E+00	 1.000E+00	 0.000E+00	 0.000E+00	|	 0.000E+00	 0.000E+00	 0.000E+00	|	 0.000E+00
-5.360E-02	|	 2.225E+00	|	 0.000E+00	 0.000E+00	 0.000E+00	 0.000E+00	 0.000E+00	 0.000E+00	 0.000E+00	 0.000E+00	 0.000E+00	 0.000E+00	 1.000E+00	 0.000E+00	|	 0.000E+00	 0.000E+00	 0.000E+00	|	 0.000E+00
-3.311E-01	|	 1.703E+00	|	 0.000E+00	 0.000E+00	 0.000E+00	 0.000E+00	 0.000E+00	 0.000E+00	 0.000E+00	 0.000E+00	 0.000E+00	 0.000E+00	 0.000E+00	 1.000E+00	|	 0.000E+00	 0.000E+00	 0.000E+00	|	 0.000E+00
 8.313E-04	|	 4.259E-04	|	-4.424E+00	-3.217E-02	-1.579E+01	 1.847E-01	 6.517E-02	 9.671E-02	-5.719E-02	-5.339E-02	-1.662E-01	 1.037E-02	 4.389E-03	 5.869E-03	|	-2.017E-01	-1.255E-01	 1.909E-01	|	 4.691E-02
-5.834E-05	|	 1.267E+00	|	 1.358E-08	-1.146E-09	 1.726E+02	 6.099E-09	-2.870E-09	 4.843E-09	 1.072E-08	-2.702E+00	 1.237E+00	 1.236E-09	-8.969E-10	 2.332E-09	|	-2.720E-07	 5.993E-08	-6.149E-08	|	-6.730E-10
 1.255E-06	|	-5.349E-07	|	-3.505E-02	-3.830E-04	-1.984E+02	 2.525E-02	 2.427E-02	 2.451E-02	-1.288E-03	 2.696E+00	-1.427E+00	 2.343E-03	 2.410E-03	 1.910E-03	|	 2.289E-01	 2.185E-01	 2.404E-01	|	 1.916E-03
 1.552E-01	|	 3.831E-01	|	 1.856E+01	 6.491E+00	 1.145E+03	-2.222E+01	-1.268E+00	-1.400E+00	-1.782E+01	-9.051E+01	-8.236E+01	-5.594E+00	-1.175E-01	-1.023E-01	|	-6.486E+02	-8.586E+00	-1.074E+01	|	 9.605E+00
-4.813E-01	|	-5.360E-02	|	 5.467E+00	-2.929E+00	 1.089E+03	-1.239E+00	-2.135E+01	-1.120E+00	-8.870E-01	-9.496E+01	-8.714E+01	-1.085E-01	-5.726E+00	-8.574E-02	|	-9.401E+00	-6.647E+02	-1.027E+01	|	 9.905E+00
 3.464E-01	|	-3.311E-01	|	 9.518E+00	-3.370E+00	 1.100E+03	-1.365E+00	-1.124E+00	-2.150E+01	-1.035E+01	-7.957E+01	-7.167E+01	-1.154E-01	-1.082E-01	-5.288E+00	|	-9.266E+00	-8.961E+00	-6.298E+02	|	 9.562E+00

op Output 	|	This colmn	|	C - Output	          	          	          	          	          	          	          	          	          	          	          	|	D - Trnsmt	          	          	|	Dd - DTsmt
Measurmnts	|	is blank  	|	Matrix    	          	          	          	          	          	          	          	          	          	          	          	|	Matrix    	          	          	|	Matrix    
 1.210E+01	|	          	|	 0.000E+00	 0.000E+00	 0.000E+00	 0.000E+00	 0.000E+00	 0.000E+00	 0.000E+00	 9.549E+00	 9.549E+00	 0.000E+00	 0.000E+00	 0.000E+00	|	 0.000E+00	 0.000E+00	 0.000E+00	|	 0.000E+00
 4.812E+00	|	          	|	 0.000E+00	 1.000E+00	 0.000E+00	 0.000E+00	 0.000E+00	 0.000E+00	 0.000E+00	 0.000E+00	 0.000E+00	 0.000E+00	 0.000E+00	 0.000E+00	|	 0.000E+00	 0.000E+00	 0.000E+00	|	 0.000E+00
 1.267E+00	|	          	|	 0.000E+00	 0.000E+00	 0.000E+00	 0.000E+00	 0.000E+00	 0.000E+00	 0.000E+00	 1.000E+00	 0.000E+00	 0.000E+00	 0.000E+00	 0.000E+00	|	 0.000E+00	 0.000E+00	 0.000E+00	|	 0.000E+00
 4.817E-03	|	          	|	 0.000E+00	 0.000E+00	 1.000E+00	 0.000E+00	 0.000E+00	 0.000E+00	 0.000E+00	 0.000E+00	 0.000E+00	 0.000E+00	 0.000E+00	 0.000E+00	|	 0.000E+00	 0.000E+00	 0.000E+00	|	 0.000E+00
-5.349E-07	|	          	|	 0.000E+00	 0.000E+00	 0.000E+00	 0.000E+00	 0.000E+00	 0.000E+00	 0.000E+00	 0.000E+00	 1.000E+00	 0.000E+00	 0.000E+00	 0.000E+00	|	 0.000E+00	 0.000E+00	 0.000E+00	|	 0.000E+00
 1.174E+03	|	          	|	 0.000E+00	 0.000E+00	 0.000E+00	 0.000E+00	 0.000E+00	 0.000E+00	 0.000E+00	 9.263E+02	 0.000E+00	 0.000E+00	 0.000E+00	 0.000E+00	|	 0.000E+00	 0.000E+00	 0.000E+00	|	 0.000E+00
 8.316E-04	|	          	|	-4.424E+00	-3.217E-02	-1.579E+01	 1.847E-01	 6.517E-02	 9.671E-02	-5.719E-02	-5.339E-02	-1.662E-01	 1.037E-02	 4.389E-03	 5.869E-03	|	-2.017E-01	-1.255E-01	 1.909E-01	|	 4.691E-02
 4.259E-04	|	          	|	 0.000E+00	 0.000E+00	 0.000E+00	 0.000E+00	 0.000E+00	 0.000E+00	 1.000E+00	 0.000E+00	 0.000E+00	 0.000E+00	 0.000E+00	 0.000E+00	|	 0.000E+00	 0.000E+00	 0.000E+00	|	 0.000E+00
 1.789E-01	|	          	|	 1.000E+00	 0.000E+00	 0.000E+00	 0.000E+00	 0.000E+00	 0.000E+00	 0.000E+00	 0.000E+00	 0.000E+00	 0.000E+00	 0.000E+00	 0.000E+00	|	 0.000E+00	 0.000E+00	 0.000E+00	|	 0.000E+00


--------- Azimuth =   9.00 deg (with respect to AzimB1Up =   0.00 deg) ---------
op State  	|	op        	|	A - State 	          	          	          	          	          	          	          	          	          	          	          	|	B - Input 	          	          	|	Bd - Dstrb
Derivativs	|	States    	|	Matrix    	          	          	          	          	          	          	          	          	          	          	          	|	Matrix    	          	          	|	Matrix    
 4.551E-04	|	 1.789E-01	|	 0.000E+00	 0.000E+00	 0.000E+00	 0.000E+00	 0.000E+00	 0.000E+00	 1.000E+00	 0.000E+00	 0.000E+00	 0.000E+00	 0.000E+00	 0.000E+00	|	 0.000E+00	 0.000E+00	 0.000E+00	|	 0.000E+00
 1.267E+00	|	 4.865E+00	|	 0.000E+00	 0.000E+00	 0.000E+00	 0.000E+00	 0.000E+00	 0.000E+00	 0.000E+00	 1.000E+00	 0.000E+00	 0.000E+00	 0.000E+00	 0.000E+00	|	 0.000E+00	 0.000E+00	 0.000E+00	|	 0.000E+00
-6.881E-07	|	 4.817E-03	|	 0.000E+00	 0.000E+00	 0.000E+00	 0.000E+00	 0.000E+00	 0.000E+00	 0.000E+00	 0.000E+00	 1.000E+00	 0.000E+00	 0.000E+00	 0.000E+00	|	 0.000E+00	 0.000E+00	 0.000E+00	|	 0.000E+00
 3.890E-01	|	 1.815E+00	|	 0.000E+00	 0.000E+00	 0.000E+00	 0.000E+00	 0.000E+00	 0.000E+00	 0.000E+00	 0.000E+00	 0.000E+00	 1.000E+00	 0.000E+00	 0.000E+00	|	 0.000E+00	 0.000E+00	 0.000E+00	|	 0.000E+00
-7.344E-02	|	 2.223E+00	|	 0.000E+00	 0.000E+00	 0.000E+00	 0.000E+00	 0.000E+00	 0.000E+00	 0.000E+00	 0.000E+00	 0.000E+00	 0.000E+00	 1.000E+00	 0.000E+00	|	 0.000E+00	 0.000E+00	 0.000E+00	|	 0.000E+00
-3.163E-01	|	 1.689E+00	|	 0.000E+00	 0.000E+00	 0.000E+00	 0.000E+00	 0.000E+00	 0.000E+00	 0.000E+00	 0.000E+00	 0.000E+00	 0.000E+00	 0.000E+00	 1.000E+00	|	 0.000E+00	 0.000E+00	 0.000E+00	|	 0.000E+00
 5.820E-04	|	 4.551E-04	|	-4.424E+00	-3.213E-02	-1.579E+01	 1.836E-01	 6.249E-02	 1.004E-01	-5.718E-02	-5.380E-02	-1.666E-01	 1.031E-02	 4.249E-03	 6.047E-03	|	-2.170E-01	-1.126E-01	 1.961E-01	|	 4.684E-02
-6.269E-05	|	 1.267E+00	|	 5.154E-09	 6.879E-09	 1.726E+02	 7.255E-09	-2.192E-09	 2.751E-09	-1.488E-08	-2.702E+00	 1.237E+00	 2.392E-10	 9.966E-10	-1.435E-09	|	-2.022E-07	-5.836E-08	-6.357E-08	|	 2.547E-09
-7.968E-06	|	-6.881E-07	|	-3.505E-02	-3.409E-04	-1.984E+02	 2.524E-02	 2.425E-02	 2.454E-02	-1.286E-03	 2.696E+00	-1.428E+00	 2.356E-03	 2.391E-03	 1.909E-03	|	 2.284E-01	 2.186E-01	 2.411E-01	|	 1.910E-03
 1.302E-01	|	 3.890E-01	|	 1.842E+01	 6.475E+00	 1.144E+03	-2.222E+01	-1.255E+00	-1.414E+00	-1.754E+01	-9.092E+01	-8.276E+01	-5.600E+00	-1.159E-01	-1.026E-01	|	-6.494E+02	-8.652E+00	-1.078E+01	|	 9.607E+00
-4.787E-01	|	-7.344E-02	|	 5.208E+00	-3.218E+00	 1.088E+03	-1.226E+00	-2.134E+01	-1.119E+00	-6.628E-01	-9.460E+01	-8.678E+01	-1.081E-01	-5.703E+00	-8.546E-02	|	-9.389E+00	-6.642E+02	-1.029E+01	|	 9.897E+00
 3.700E-01	|	-3.163E-01	|	 9.914E+00	-3.061E+00	 1.102E+03	-1.379E+00	-1.124E+00	-2.152E+01	-1.085E+01	-7.946E+01	-7.155E+01	-1.167E-01	-1.075E-01	-5.285E+00	|	-9.196E+00	-8.969E+00	-6.295E+02	|	 9.551E+00

op Output 	|	This colmn	|	C - Output	          	          	          	          	          	          	          	          	          	          	          	|	D - Trnsmt	          	          	|	Dd - DTsmt
Measurmnts	|	is blank  	|	Matrix    	          	          	          	          	          	          	          	          	          	          	          	|	Matrix    	          	          	|	Matrix    
 1.210E+01	|	          	|	 0.000E+00	 0.000E+00	 0.000E+00	 0.000E+00	 0.000E+00	 0.000E+00	 0.000E+00	 9.549E+00	 9.549E+00	 0.000E+00	 0.000E+00	 0.000E+00	|	 0.000E+00	 0.000E+00	 0.000E+00	|	 0.000E+00
 4.865E+00	|	          	|	 0.000E+00	 1.000E+00	 0.000E+00	 0.000E+00	 0.000E+00	 0.000E+00	 0.000E+00	 0.000E+00	 0.000E+00	 0.000E+00	 0.000E+00	 0.000E+00	|	 0.000E+00	 0.000E+00	 0.000E+00	|	 0.000E+00
 1.267E+00	|	          	|	 0.000E+00	 0.000E+00	 0.000E+00	 0.000E+00	 0.000E+00	 0.000E+00	 0.000E+00	 1.000E+00	 0.000E+00	 0.000E+00	 0.000E+00	 0.000E+00	|	 0.000E+00	 0.000E+00	 0.000E+00	|	 0.000E+00
 4.817E-03	|	          	|	 0.000E+00	 0.000E+00	 1.000E+00	 0.000E+00	 0.000E+00	 0.000E+00	 0.000E+00	 0.000E+00	 0.000E+00	 0.000E+00	 0.000E+00	 0.000E+00	|	 0.000E+00	 0.000E+00	 0.000E+00	|	 0.000E+00
-6.881E-07	|	          	|	 0.000E+00	 0.000E+00	 0.000E+00	 0.000E+00	 0.000E+00	 0.000E+00	 0.000E+00	 0.000E+00	 1.000E+00	 0.000E+00	 0.000E+00	 0.000E+00	|	 0.000E+00	 0.000E+00	 0.000E+00	|	 0.000E+00
 1.174E+03	|	          	|	 0.000E+00	 0.000E+00	 0.000E+00	 0.000E+00	 0.000E+00	 0.000E+00	 0.000E+00	 9.263E+02	 0.000E+00	 0.000E+00	 0.000E+00	 0.000E+00	|	 0.000E+00	 0.000E+00	 0.000E+00	|	 0.000E+00
 5.826E-04	|	          	|	-4.424E+00	-3.213E-02	-1.579E+01	 1.836E-01	 6.249E-02	 1.004E-01	-5.718E-02	-5.380E-02	-1.666E-01	 1.031E-02	 4.249E-03	 6.047E-03	|	-2.170E-01	-1.126E-01	 1.961E-01	|	 4.684E-02
 4.551E-04	|	          	|	 0.000E+00	 0.000E+00	 0.000E+00	 0.000E+00	 0.000E+00	 0.000E+00	 1.000E+00	 0.000E+00	 0.000E+00	 0.000E+00	 0.000E+00	 0.000E+00	|	 0.000E+00	 0.000E+00	 0.000E+00	|	 0.000E+00
 1.789E-01	|	          	|	 1.000E+00	 0.000E+00	 0.000E+00	 0.000E+00	 0.000E+00	 0.000E+00	 0.000E+00	 0.000E+00	 0.000E+00	 0.000E+00	 0.000E+00	 0.000E+00	|	 0.000E+00	 0.000E+00	 0.000E+00	|	 0.000E+00


--------- Azimuth =  12.00 deg (with respect to AzimB1Up =   0.00 deg) ---------
op State  	|	op        	|	A - State 	          	          	          	          	          	          	          	          	          	          	          	|	B - Input 	          	          	|	Bd - Dstrb
Derivativs	|	States    	|	Matrix    	          	          	          	          	          	          	          	          	          	          	          	|	Matrix    	          	          	|	Matrix    
 4.739E-04	|	 1.789E-01	|	 0.000E+00	 0.000E+00	 0.000E+00	 0.000E+00	 0.000E+00	 0.000E+00	 1.000E+00	 0.000E+00	 0.000E+00	 0.000E+00	 0.000E+00	 0.000E+00	|	 0.000E+00	 0.000E+00	 0.000E+00	|	 0.000E+00
 1.267E+00	|	 4.917E+00	|	 0.000E+00	 0.000E+00	 0.000E+00	 0.000E+00	 0.000E+00	 0.000E+00	 0.000E+00	 1.000E+00	 0.000E+00	 0.000E+00	 0.000E+00	 0.000E+00	|	 0.000E+00	 0.000E+00	 0.000E+00	|	 0.000E+00
-1.100E-06	|	 4.817E-03	|	 0.000E+00	 0.000E+00	 0.000E+00	 0.000E+00	 0.000E+00	 0.000E+00	 0.000E+00	 0.000E+00	 1.000E+00	 0.000E+00	 0.000E+00	 0.000E+00	|	 0.000E+00	 0.000E+00	 0.000E+00	|	 0.000E+00
 3.939E-01	|	 1.831E+00	|	 0.000E+00	 0.000E+00	 0.000E+00	 0.000E+00	 0.000E+00	 0.000E+00	 0.000E+00	 0.000E+00	 0.000E+00	 1.000E+00	 0.000E+00	 0.000E+00	|	 0.000E+00	 0.000E+00	 0.000E+00	|	 0.000E+00
-9.317E-02	|	 2.219E+00	|	 0.000E+00	 0.000E+00	 0.000E+00	 0.000E+00	 0.000E+00	 0.000E+00	 0.000E+00	 0.000E+00	 0.000E+00	 0.000E+00	 1.000E+00	 0.000E+00	|	 0.000E+00	 0.000E+00	 0.000E+00	|	 0.000E+00
-3.005E-01	|	 1.676E+00	|	 0.000E+00	 0.000E+00	 0.000E+00	 0.000E+00	 0.000E+00	 0.000E+00	 0.000E+00	 0.000E+00	 0.000E+00	 0.000E+00	 0.000E+00	 1.000E+00	|	 0.000E+00	 0.000E+00	 0.000E+00	|	 0.000E+00
 3.260E-04	|	 4.739E-04	|	-4.424E+00	-3.212E-02	-1.579E+01	 1.824E-01	 5.996E-02	 1.041E-01	-5.719E-02	-5.468E-02	-1.675E-01	 1.023E-02	 4.117E-03	 6.223E-03	|	-2.325E-01	-1.006E-01	 1.997E-01	|	 4.683E-02
-6.950E-05	|	 1.267E+00	|	 6.157E-09	 1.980E-09	 1.726E+02	-2.073E-09	-2.790E-09	-1.300E-08	-1.623E-08	-2.702E+00	 1.237E+00	-3.309E-09	 3.189E-10	-3.986E-11	|	 1.709E-07	-1.595E-07	-2.918E-08	|	 8.840E-09
-1.070E-05	|	-1.100E-06	|	-3.506E-02	-2.904E-04	-1.984E+02	 2.524E-02	 2.423E-02	 2.456E-02	-1.286E-03	 2.696E+00	-1.428E+00	 2.368E-03	 2.373E-03	 1.908E-03	|	 2.281E-01	 2.185E-01	 2.415E-01	|	 1.912E-03
 1.052E-01	|	 3.939E-01	|	 1.826E+01	 6.439E+00	 1.144E+03	-2.221E+01	-1.243E+00	-1.426E+00	-1.725E+01	-9.128E+01	-8.314E+01	-5.607E+00	-1.150E-01	-1.036E-01	|	-6.503E+02	-8.689E+00	-1.080E+01	|	 9.609E+00
-4.772E-01	|	-9.317E-02	|	 4.976E+00	-3.546E+00	 1.087E+03	-1.213E+00	-2.133E+01	-1.117E+00	-4.634E-01	-9.419E+01	-8.638E+01	-1.082E-01	-5.681E+00	-8.547E-02	|	-9.384E+00	-6.634E+02	-1.030E+01	|	 9.887E+00
 3.924E-01	|	-3.005E-01	|	 1.031E+01	-2.743E+00	 1.104E+03	-1.393E+00	-1.124E+00	-2.154E+01	-1.133E+01	-7.937E+01	-7.144E+01	-1.182E-01	-1.071E-01	-5.280E+00	|	-9.132E+00	-8.974E+00	-6.293E+02	|	 9.540E+00

op Output 	|	This colmn	|	C - Output	          	          	          	          	          	          	          	          	          	          	          	|	D - Trnsmt	          	          	|	Dd - DTsmt
Measurmnts	|	is blank  	|	Matrix    	          	          	          	          	          	          	          	          	          	          	          	|	Matrix    	          	          	|	Matrix    
 1.210E+01	|	          	|	 0.000E+00	 0.000E+00	 0.000E+00	 0.000E+00	 0.000E+00	 0.000E+00	 0.000E+00	 9.549E+00	 9.549E+00	 0.000E+00	 0.000E+00	 0.000E+00	|	 0.000E+00	 0.000E+00	 0.000E+00	|	 0.000E+00
 4.917E+00	|	          	|	 0.000E+00	 1.000E+00	 0.000E+00	 0.000E+00	 0.000E+00	 0.000E+00	 0.000E+00	 0.000E+00	 0.000E+00	 0.000E+00	 0.000E+00	 0.000E+00	|	 0.000E+00	 0.000E+00	 0.000E+00	|	 0.000E+00
 1.267E+00	|	          	|	 0.000E+00	 0.000E+00	 0.000E+00	 0.000E+00	 0.000E+00	 0.000E+00	 0.000E+00	 1.000E+00	 0.000E+00	 0.000E+00	 0.000E+00	 0.000E+00	|	 0.000E+00	 0.000E+00	 0.000E+00	|	 0.000E+00
 4.817E-03	|	          	|	 0.000E+00	 0.000E+00	 1.000E+00	 0.000E+00	 0.000E+00	 0.000E+00	 0.000E+00	 0.000E+00	 0.000E+00	 0.000E+00	 0.000E+00	 0.000E+00	|	 0.000E+00	 0.000E+00	 0.000E+00	|	 0.000E+00
-1.100E-06	|	          	|	 0.000E+00	 0.000E+00	 0.000E+00	 0.000E+00	 0.000E+00	 0.000E+00	 0.000E+00	 0.000E+00	 1.000E+00	 0.000E+00	 0.000E+00	 0.000E+00	|	 0.000E+00	 0.000E+00	 0.000E+00	|	 0.000E+00
 1.174E+03	|	          	|	 0.000E+00	 0.000E+00	 0.000E+00	 0.000E+00	 0.000E+00	 0.000E+00	 0.000E+00	 9.263E+02	 0.000E+00	 0.000E+00	 0.000E+00	 0.000E+00	|	 0.000E+00	 0.000E+00	 0.000E+00	|	 0.000E+00
 3.263E-04	|	          	|	-4.424E+00	-3.212E-02	-1.579E+01	 1.824E-01	 5.996E-02	 1.041E-01	-5.719E-02	-5.468E-02	-1.675E-01	 1.023E-02	 4.117E-03	 6.223E-03	|	-2.325E-01	-1.006E-01	 1.997E-01	|	 4.683E-02
 4.739E-04	|	          	|	 0.000E+00	 0.000E+00	 0.000E+00	 0.000E+00	 0.000E+00	 0.000E+00	 1.000E+00	 0.000E+00	 0.000E+00	 0.000E+00	 0.000E+00	 0.000E+00	|	 0.000E+00	 0.000E+00	 0.000E+00	|	 0.000E+00
 1.789E-01	|	          	|	 1.000E+00	 0.000E+00	 0.000E+00	 0.000E+00	 0.000E+00	 0.000E+00	 0.000E+00	 0.000E+00	 0.000E+00	 0.000E+00	 0.000E+00	 0.000E+00	|	 0.000E+00	 0.000E+00	 0.000E+00	|	 0.000E+00


--------- Azimuth =  15.00 deg (with respect to AzimB1Up =   0.00 deg) ---------
op State  	|	op        	|	A - State 	          	          	          	          	          	          	          	          	          	          	          	|	B - Input 	          	          	|	Bd - Dstrb
Derivativs	|	States    	|	Matrix    	          	          	          	          	          	          	          	          	          	          	          	|	Matrix    	          	          	|	Matrix    
 4.820E-04	|	 1.789E-01	|	 0.000E+00	 0.000E+00	 0.000E+00	 0.000E+00	 0.000E+00	 0.000E+00	 1.000E+00	 0.000E+00	 0.000E+00	 0.000E+00	 0.000E+00	 0.000E+00	|	 0.000E+00	 0.000E+00	 0.000E+00	|	 0.000E+00
 1.267E+00	|	 4.969E+00	|	 0.000E+00	 0.000E+00	 0.000E+00	 0.000E+00	 0.000E+00	 0.000E+00	 0.000E+00	 1.000E+00	 0.000E+00	 0.000E+00	 0.000E+00	 0.000E+00	|	 0.000E+00	 0.000E+00	 0.000E+00	|	 0.000E+00
-1.488E-06	|	 4.817E-03	|	 0.000E+00	 0.000E+00	 0.000E+00	 0.000E+00	 0.000E+00	 0.000E+00	 0.000E+00	 0.000E+00	 1.000E+00	 0.000E+00	 0.000E+00	 0.000E+00	|	 0.000E+00	 0.000E+00	 0.000E+00	|	 0.000E+00