
This linearized model file was generated by FAST (v7.02.00d-bjj, 20-Feb-2013) on 12-Jul-2018 at 22:07:52.
The aerodynamic calculations were made by AeroDyn (v13.00.02a-bjj, 20-Feb-2013).

 NREL 5.0 MW Baseline Wind Turbine for Use in Offshore Analysis.


Some Useful Information:

   Type of steady state solution found                Trimmed collective blade pitch (TrimCase = 3)
   Azimuth-average rotor speed, RotSpeed      (rad/s)    1.26711E+00
   Period of steady state solution              (sec)    4.95868E+00
   Iterations needed to find steady state solution      67
   Displacement 2-norm of steady state solution (rad)    3.87483E-05
   Velocity 2-norm of steady state solution   (rad/s)    6.14941E-06
   Number of equally-speced azimuth steps, NAzimStep   120
   Order of linearized model, MdlOrder                   1
   Number of active (enabled) DOFs                       6 (12 states)
   Number of control inputs, NInputs                     3
   Number of input wind disturbances, NDisturbs          1
   Number of output measurements                         9


Order of States in Linearized State Matrices:

   Row/column  1 = 1st tower fore-aft bending mode DOF (internal DOF index = DOF_TFA1)
   Row/column  2 = Variable speed generator DOF (internal DOF index = DOF_GeAz)
   Row/column  3 = Drivetrain rotational-flexibility DOF (internal DOF index = DOF_DrTr)
   Row/column  4 = 1st flapwise bending-mode DOF of blade 1 (internal DOF index = DOF_BF(1,1))
   Row/column  5 = 1st flapwise bending-mode DOF of blade 2 (internal DOF index = DOF_BF(2,1))
   Row/column  6 = 1st flapwise bending-mode DOF of blade 3 (internal DOF index = DOF_BF(3,1))
   Row/column  7 to 12 = First derivatives of row/column  1 to  6.


Order of Control Inputs in Linearized State Matrices:

   Column 1 = individual pitch of blade 1       (rad)    2.12353E-01 op
   Column 2 = individual pitch of blade 2       (rad)    2.12353E-01 op
   Column 3 = individual pitch of blade 3       (rad)    2.12353E-01 op


Order of Input Wind Disturbances in Linearized State Matrices:

   Column 1 = horizontal hub-height wind speed  (m/s) : See selected wind file for op


Order of Output Measurements in Linearized State Matrices:

   Row   1 = RotSpeed   (rpm)     
   Row   2 = Q_GeAz     (rad)     
   Row   3 = QD_GeAz    (rad/s)   
   Row   4 = Q_DrTr     (rad)     
   Row   5 = QD_DrTr    (rad/s)   
   Row   6 = GenSpeed   (rpm)     
   Row   7 = QD2_TFA1   (m/s^2)   
   Row   8 = QD_TFA1    (m/s)     
   Row   9 = Q_TFA1     (m)       


Linearized State Matrices:

--------- Azimuth =   0.00 deg (with respect to AzimB1Up =   0.00 deg) ---------
op State  	|	op        	|	A - State 	          	          	          	          	          	          	          	          	          	          	          	|	B - Input 	          	          	|	Bd - Dstrb
Derivativs	|	States    	|	Matrix    	          	          	          	          	          	          	          	          	          	          	          	|	Matrix    	          	          	|	Matrix    
 1.821E-04	|	 2.019E-01	|	 0.000E+00	 0.000E+00	 0.000E+00	 0.000E+00	 0.000E+00	 0.000E+00	 1.000E+00	 0.000E+00	 0.000E+00	 0.000E+00	 0.000E+00	 0.000E+00	|	 0.000E+00	 0.000E+00	 0.000E+00	|	 0.000E+00
 1.267E+00	|	 4.708E+00	|	 0.000E+00	 0.000E+00	 0.000E+00	 0.000E+00	 0.000E+00	 0.000E+00	 0.000E+00	 1.000E+00	 0.000E+00	 0.000E+00	 0.000E+00	 0.000E+00	|	 0.000E+00	 0.000E+00	 0.000E+00	|	 0.000E+00
-4.612E-07	|	 4.818E-03	|	 0.000E+00	 0.000E+00	 0.000E+00	 0.000E+00	 0.000E+00	 0.000E+00	 0.000E+00	 0.000E+00	 1.000E+00	 0.000E+00	 0.000E+00	 0.000E+00	|	 0.000E+00	 0.000E+00	 0.000E+00	|	 0.000E+00
 3.891E-01	|	 2.308E+00	|	 0.000E+00	 0.000E+00	 0.000E+00	 0.000E+00	 0.000E+00	 0.000E+00	 0.000E+00	 0.000E+00	 0.000E+00	 1.000E+00	 0.000E+00	 0.000E+00	|	 0.000E+00	 0.000E+00	 0.000E+00	|	 0.000E+00
-2.106E-02	|	 2.797E+00	|	 0.000E+00	 0.000E+00	 0.000E+00	 0.000E+00	 0.000E+00	 0.000E+00	 0.000E+00	 0.000E+00	 0.000E+00	 0.000E+00	 1.000E+00	 0.000E+00	|	 0.000E+00	 0.000E+00	 0.000E+00	|	 0.000E+00
-3.696E-01	|	 2.270E+00	|	 0.000E+00	 0.000E+00	 0.000E+00	 0.000E+00	 0.000E+00	 0.000E+00	 0.000E+00	 0.000E+00	 0.000E+00	 0.000E+00	 0.000E+00	 1.000E+00	|	 0.000E+00	 0.000E+00	 0.000E+00	|	 0.000E+00
 8.735E-04	|	 1.821E-04	|	-4.427E+00	-3.320E-02	-1.389E+01	 1.865E-01	 7.050E-02	 8.711E-02	-5.745E-02	-8.944E-02	-1.887E-01	 9.688E-03	 4.146E-03	 4.964E-03	|	-1.447E-01	-1.633E-01	 1.506E-01	|	 4.771E-02
-9.540E-07	|	 1.267E+00	|	-9.764E-09	 1.612E-09	 1.726E+02	-7.367E-09	-6.343E-09	-3.482E-09	-9.431E-10	-2.702E+00	 1.237E+00	 1.976E-09	 2.521E-09	 1.815E-09	|	 1.262E-07	 2.804E-07	 6.779E-08	|	-1.718E-09
-2.400E-07	|	-4.612E-07	|	-3.081E-02	-1.808E-04	-1.976E+02	 2.180E-02	 2.101E-02	 2.111E-02	-2.857E-03	 2.652E+00	-1.466E+00	 1.678E-03	 1.732E-03	 1.388E-03	|	 1.994E-01	 1.857E-01	 2.061E-01	|	 3.425E-03
 2.290E-01	|	 3.891E-01	|	 1.879E+01	 6.830E+00	 9.880E+02	-2.201E+01	-1.061E+00	-1.131E+00	-1.710E+01	-5.316E+01	-4.613E+01	-5.075E+00	-7.982E-02	-7.029E-02	|	-5.944E+02	-6.111E+00	-8.135E+00	|	 9.157E+00
-5.280E-01	|	-2.106E-02	|	 6.285E+00	-2.430E+00	 9.391E+02	-1.029E+00	-2.129E+01	-8.858E-01	-1.087E+00	-5.702E+01	-5.027E+01	-7.435E-02	-5.208E+00	-5.774E-02	|	-7.288E+00	-6.073E+02	-7.878E+00	|	 9.529E+00
 3.033E-01	|	-3.696E-01	|	 8.323E+00	-4.225E+00	 9.426E+02	-1.090E+00	-8.860E-01	-2.135E+01	-9.113E+00	-4.753E+01	-4.074E+01	-7.758E-02	-7.118E-02	-4.998E+00	|	-7.258E+00	-6.715E+00	-6.001E+02	|	 9.388E+00

op Output 	|	This colmn	|	C - Output	          	          	          	          	          	          	          	          	          	          	          	|	D - Trnsmt	          	          	|	Dd - DTsmt
Measurmnts	|	is blank  	|	Matrix    	          	          	          	          	          	          	          	          	          	          	          	|	Matrix    	          	          	|	Matrix    
 1.210E+01	|	          	|	 0.000E+00	 0.000E+00	 0.000E+00	 0.000E+00	 0.000E+00	 0.000E+00	 0.000E+00	 9.549E+00	 9.549E+00	 0.000E+00	 0.000E+00	 0.000E+00	|	 0.000E+00	 0.000E+00	 0.000E+00	|	 0.000E+00
 4.708E+00	|	          	|	 0.000E+00	 1.000E+00	 0.000E+00	 0.000E+00	 0.000E+00	 0.000E+00	 0.000E+00	 0.000E+00	 0.000E+00	 0.000E+00	 0.000E+00	 0.000E+00	|	 0.000E+00	 0.000E+00	 0.000E+00	|	 0.000E+00
 1.267E+00	|	          	|	 0.000E+00	 0.000E+00	 0.000E+00	 0.000E+00	 0.000E+00	 0.000E+00	 0.000E+00	 1.000E+00	 0.000E+00	 0.000E+00	 0.000E+00	 0.000E+00	|	 0.000E+00	 0.000E+00	 0.000E+00	|	 0.000E+00
 4.818E-03	|	          	|	 0.000E+00	 0.000E+00	 1.000E+00	 0.000E+00	 0.000E+00	 0.000E+00	 0.000E+00	 0.000E+00	 0.000E+00	 0.000E+00	 0.000E+00	 0.000E+00	|	 0.000E+00	 0.000E+00	 0.000E+00	|	 0.000E+00
-4.612E-07	|	          	|	 0.000E+00	 0.000E+00	 0.000E+00	 0.000E+00	 0.000E+00	 0.000E+00	 0.000E+00	 0.000E+00	 1.000E+00	 0.000E+00	 0.000E+00	 0.000E+00	|	 0.000E+00	 0.000E+00	 0.000E+00	|	 0.000E+00
 1.174E+03	|	          	|	 0.000E+00	 0.000E+00	 0.000E+00	 0.000E+00	 0.000E+00	 0.000E+00	 0.000E+00	 9.263E+02	 0.000E+00	 0.000E+00	 0.000E+00	 0.000E+00	|	 0.000E+00	 0.000E+00	 0.000E+00	|	 0.000E+00
 8.742E-04	|	          	|	-4.427E+00	-3.320E-02	-1.389E+01	 1.865E-01	 7.050E-02	 8.711E-02	-5.745E-02	-8.944E-02	-1.887E-01	 9.688E-03	 4.146E-03	 4.964E-03	|	-1.447E-01	-1.633E-01	 1.506E-01	|	 4.771E-02
 1.821E-04	|	          	|	 0.000E+00	 0.000E+00	 0.000E+00	 0.000E+00	 0.000E+00	 0.000E+00	 1.000E+00	 0.000E+00	 0.000E+00	 0.000E+00	 0.000E+00	 0.000E+00	|	 0.000E+00	 0.000E+00	 0.000E+00	|	 0.000E+00
 2.019E-01	|	          	|	 1.000E+00	 0.000E+00	 0.000E+00	 0.000E+00	 0.000E+00	 0.000E+00	 0.000E+00	 0.000E+00	 0.000E+00	 0.000E+00	 0.000E+00	 0.000E+00	|	 0.000E+00	 0.000E+00	 0.000E+00	|	 0.000E+00


--------- Azimuth =   3.00 deg (with respect to AzimB1Up =   0.00 deg) ---------
op State  	|	op        	|	A - State 	          	          	          	          	          	          	          	          	          	          	          	|	B - Input 	          	          	|	Bd - Dstrb
Derivativs	|	States    	|	Matrix    	          	          	          	          	          	          	          	          	          	          	          	|	Matrix    	          	          	|	Matrix    
 2.159E-04	|	 2.019E-01	|	 0.000E+00	 0.000E+00	 0.000E+00	 0.000E+00	 0.000E+00	 0.000E+00	 1.000E+00	 0.000E+00	 0.000E+00	 0.000E+00	 0.000E+00	 0.000E+00	|	 0.000E+00	 0.000E+00	 0.000E+00	|	 0.000E+00
 1.267E+00	|	 4.760E+00	|	 0.000E+00	 0.000E+00	 0.000E+00	 0.000E+00	 0.000E+00	 0.000E+00	 0.000E+00	 1.000E+00	 0.000E+00	 0.000E+00	 0.000E+00	 0.000E+00	|	 0.000E+00	 0.000E+00	 0.000E+00	|	 0.000E+00
-4.864E-07	|	 4.818E-03	|	 0.000E+00	 0.000E+00	 0.000E+00	 0.000E+00	 0.000E+00	 0.000E+00	 0.000E+00	 0.000E+00	 1.000E+00	 0.000E+00	 0.000E+00	 0.000E+00	|	 0.000E+00	 0.000E+00	 0.000E+00	|	 0.000E+00
 3.980E-01	|	 2.324E+00	|	 0.000E+00	 0.000E+00	 0.000E+00	 0.000E+00	 0.000E+00	 0.000E+00	 0.000E+00	 0.000E+00	 0.000E+00	 1.000E+00	 0.000E+00	 0.000E+00	|	 0.000E+00	 0.000E+00	 0.000E+00	|	 0.000E+00
-4.286E-02	|	 2.795E+00	|	 0.000E+00	 0.000E+00	 0.000E+00	 0.000E+00	 0.000E+00	 0.000E+00	 0.000E+00	 0.000E+00	 0.000E+00	 0.000E+00	 1.000E+00	 0.000E+00	|	 0.000E+00	 0.000E+00	 0.000E+00	|	 0.000E+00
-3.566E-01	|	 2.255E+00	|	 0.000E+00	 0.000E+00	 0.000E+00	 0.000E+00	 0.000E+00	 0.000E+00	 0.000E+00	 0.000E+00	 0.000E+00	 0.000E+00	 0.000E+00	 1.000E+00	|	 0.000E+00	 0.000E+00	 0.000E+00	|	 0.000E+00
 7.619E-04	|	 2.159E-04	|	-4.427E+00	-3.343E-02	-1.389E+01	 1.859E-01	 6.747E-02	 9.073E-02	-5.743E-02	-8.879E-02	-1.881E-01	 9.653E-03	 4.010E-03	 5.148E-03	|	-1.652E-01	-1.512E-01	 1.582E-01	|	 4.774E-02
-4.319E-06	|	 1.267E+00	|	-7.073E-09	-2.886E-09	 1.726E+02	-1.043E-08	-6.321E-09	-7.716E-09	-1.168E-08	-2.702E+00	 1.237E+00	 6.328E-10	-1.121E-09	-1.296E-10	|	-1.564E-07	-2.664E-08	 1.235E-07	|	 6.366E-09
-7.695E-07	|	-4.864E-07	|	-3.081E-02	-1.853E-04	-1.976E+02	 2.179E-02	 2.099E-02	 2.114E-02	-2.850E-03	 2.652E+00	-1.465E+00	 1.688E-03	 1.723E-03	 1.389E-03	|	 1.984E-01	 1.858E-01	 2.068E-01	|	 3.429E-03
 2.030E-01	|	 3.980E-01	|	 1.871E+01	 6.861E+00	 9.879E+02	-2.201E+01	-1.047E+00	-1.145E+00	-1.686E+01	-5.346E+01	-4.643E+01	-5.080E+00	-7.915E-02	-7.124E-02	|	-5.945E+02	-6.174E+00	-8.191E+00	|	 9.159E+00
-5.269E-01	|	-4.286E-02	|	 5.980E+00	-2.752E+00	 9.378E+02	-1.015E+00	-2.128E+01	-8.839E-01	-8.463E-01	-5.685E+01	-5.011E+01	-7.365E-02	-5.205E+00	-5.756E-02	|	-7.242E+00	-6.074E+02	-7.904E+00	|	 9.537E+00
 3.289E-01	|	-3.566E-01	|	 8.702E+00	-3.931E+00	 9.441E+02	-1.105E+00	-8.862E-01	-2.137E+01	-9.593E+00	-4.742E+01	-4.063E+01	-7.875E-02	-7.102E-02	-4.995E+00	|	-7.155E+00	-6.707E+00	-5.998E+02	|	 9.376E+00

op Output 	|	This colmn	|	C - Output	          	          	          	          	          	          	          	          	          	          	          	|	D - Trnsmt	          	          	|	Dd - DTsmt
Measurmnts	|	is blank  	|	Matrix    	          	          	          	          	          	          	          	          	          	          	          	|	Matrix    	          	          	|	Matrix    
 1.210E+01	|	          	|	 0.000E+00	 0.000E+00	 0.000E+00	 0.000E+00	 0.000E+00	 0.000E+00	 0.000E+00	 9.549E+00	 9.549E+00	 0.000E+00	 0.000E+00	 0.000E+00	|	 0.000E+00	 0.000E+00	 0.000E+00	|	 0.000E+00
 4.760E+00	|	          	|	 0.000E+00	 1.000E+00	 0.000E+00	 0.000E+00	 0.000E+00	 0.000E+00	 0.000E+00	 0.000E+00	 0.000E+00	 0.000E+00	 0.000E+00	 0.000E+00	|	 0.000E+00	 0.000E+00	 0.000E+00	|	 0.000E+00
 1.267E+00	|	          	|	 0.000E+00	 0.000E+00	 0.000E+00	 0.000E+00	 0.000E+00	 0.000E+00	 0.000E+00	 1.000E+00	 0.000E+00	 0.000E+00	 0.000E+00	 0.000E+00	|	 0.000E+00	 0.000E+00	 0.000E+00	|	 0.000E+00
 4.818E-03	|	          	|	 0.000E+00	 0.000E+00	 1.000E+00	 0.000E+00	 0.000E+00	 0.000E+00	 0.000E+00	 0.000E+00	 0.000E+00	 0.000E+00	 0.000E+00	 0.000E+00	|	 0.000E+00	 0.000E+00	 0.000E+00	|	 0.000E+00
-4.864E-07	|	          	|	 0.000E+00	 0.000E+00	 0.000E+00	 0.000E+00	 0.000E+00	 0.000E+00	 0.000E+00	 0.000E+00	 1.000E+00	 0.000E+00	 0.000E+00	 0.000E+00	|	 0.000E+00	 0.000E+00	 0.000E+00	|	 0.000E+00
 1.174E+03	|	          	|	 0.000E+00	 0.000E+00	 0.000E+00	 0.000E+00	 0.000E+00	 0.000E+00	 0.000E+00	 9.263E+02	 0.000E+00	 0.000E+00	 0.000E+00	 0.000E+00	|	 0.000E+00	 0.000E+00	 0.000E+00	|	 0.000E+00
 7.618E-04	|	          	|	-4.427E+00	-3.343E-02	-1.389E+01	 1.859E-01	 6.747E-02	 9.073E-02	-5.743E-02	-8.879E-02	-1.881E-01	 9.653E-03	 4.010E-03	 5.148E-03	|	-1.652E-01	-1.512E-01	 1.582E-01	|	 4.774E-02
 2.159E-04	|	          	|	 0.000E+00	 0.000E+00	 0.000E+00	 0.000E+00	 0.000E+00	 0.000E+00	 1.000E+00	 0.000E+00	 0.000E+00	 0.000E+00	 0.000E+00	 0.000E+00	|	 0.000E+00	 0.000E+00	 0.000E+00	|	 0.000E+00
 2.019E-01	|	          	|	 1.000E+00	 0.000E+00	 0.000E+00	 0.000E+00	 0.000E+00	 0.000E+00	 0.000E+00	 0.000E+00	 0.000E+00	 0.000E+00	 0.000E+00	 0.000E+00	|	 0.000E+00	 0.000E+00	 0.000E+00	|	 0.000E+00


--------- Azimuth =   6.00 deg (with respect to AzimB1Up =   0.00 deg) ---------
op State  	|	op        	|	A - State 	          	          	          	          	          	          	          	          	          	          	          	|	B - Input 	          	          	|	Bd - Dstrb
Derivativs	|	States    	|	Matrix    	          	          	          	          	          	          	          	          	          	          	          	|	Matrix    	          	          	|	Matrix    
 2.445E-04	|	 2.019E-01	|	 0.000E+00	 0.000E+00	 0.000E+00	 0.000E+00	 0.000E+00	 0.000E+00	 1.000E+00	 0.000E+00	 0.000E+00	 0.000E+00	 0.000E+00	 0.000E+00	|	 0.000E+00	 0.000E+00	 0.000E+00	|	 0.000E+00
 1.267E+00	|	 4.812E+00	|	 0.000E+00	 0.000E+00	 0.000E+00	 0.000E+00	 0.000E+00	 0.000E+00	 0.000E+00	 1.000E+00	 0.000E+00	 0.000E+00	 0.000E+00	 0.000E+00	|	 0.000E+00	 0.000E+00	 0.000E+00	|	 0.000E+00
-5.441E-07	|	 4.818E-03	|	 0.000E+00	 0.000E+00	 0.000E+00	 0.000E+00	 0.000E+00	 0.000E+00	 0.000E+00	 0.000E+00	 1.000E+00	 0.000E+00	 0.000E+00	 0.000E+00	|	 0.000E+00	 0.000E+00	 0.000E+00	|	 0.000E+00
 4.058E-01	|	 2.340E+00	|	 0.000E+00	 0.000E+00	 0.000E+00	 0.000E+00	 0.000E+00	 0.000E+00	 0.000E+00	 0.000E+00	 0.000E+00	 1.000E+00	 0.000E+00	 0.000E+00	|	 0.000E+00	 0.000E+00	 0.000E+00	|	 0.000E+00
-6.459E-02	|	 2.793E+00	|	 0.000E+00	 0.000E+00	 0.000E+00	 0.000E+00	 0.000E+00	 0.000E+00	 0.000E+00	 0.000E+00	 0.000E+00	 0.000E+00	 1.000E+00	 0.000E+00	|	 0.000E+00	 0.000E+00	 0.000E+00	|	 0.000E+00
-3.425E-01	|	 2.240E+00	|	 0.000E+00	 0.000E+00	 0.000E+00	 0.000E+00	 0.000E+00	 0.000E+00	 0.000E+00	 0.000E+00	 0.000E+00	 0.000E+00	 0.000E+00	 1.000E+00	|	 0.000E+00	 0.000E+00	 0.000E+00	|	 0.000E+00
 6.144E-04	|	 2.445E-04	|	-4.427E+00	-3.401E-02	-1.389E+01	 1.852E-01	 6.458E-02	 9.442E-02	-5.736E-02	-8.817E-02	-1.874E-01	 9.601E-03	 3.877E-03	 5.321E-03	|	-1.846E-01	-1.395E-01	 1.641E-01	|	 4.779E-02
-8.032E-06	|	 1.267E+00	|	-1.573E-09	-1.602E-09	 1.726E+02	 4.594E-09	-4.495E-09	-2.741E-10	 2.401E-09	-2.702E+00	 1.237E+00	 1.779E-09	-5.531E-10	-2.397E-09	|	 3.778E-08	 1.567E-07	-4.117E-08	|	-1.464E-09
-2.499E-06	|	-5.441E-07	|	-3.082E-02	-2.325E-04	-1.976E+02	 2.179E-02	 2.097E-02	 2.116E-02	-2.835E-03	 2.652E+00	-1.465E+00	 1.697E-03	 1.714E-03	 1.388E-03	|	 1.976E-01	 1.859E-01	 2.073E-01	|	 3.437E-03
 1.768E-01	|	 4.058E-01	|	 1.862E+01	 6.876E+00	 9.876E+02	-2.200E+01	-1.034E+00	-1.159E+00	-1.660E+01	-5.374E+01	-4.672E+01	-5.087E+00	-7.775E-02	-7.134E-02	|	-5.946E+02	-6.231E+00	-8.231E+00	|	 9.160E+00
-5.245E-01	|	-6.459E-02	|	 5.691E+00	-3.069E+00	 9.365E+02	-1.000E+00	-2.127E+01	-8.825E-01	-6.303E-01	-5.667E+01	-4.994E+01	-7.314E-02	-5.204E+00	-5.709E-02	|	-7.224E+00	-6.075E+02	-7.928E+00	|	 9.542E+00
 3.536E-01	|	-3.425E-01	|	 9.089E+00	-3.623E+00	 9.457E+02	-1.120E+00	-8.868E-01	-2.138E+01	-1.007E+01	-4.732E+01	-4.052E+01	-7.953E-02	-7.051E-02	-4.990E+00	|	-7.087E+00	-6.730E+00	-5.995E+02	|	 9.363E+00

op Output 	|	This colmn	|	C - Output	          	          	          	          	          	          	          	          	          	          	          	|	D - Trnsmt	          	          	|	Dd - DTsmt
Measurmnts	|	is blank  	|	Matrix    	          	          	          	          	          	          	          	          	          	          	          	|	Matrix    	          	          	|	Matrix    
 1.210E+01	|	          	|	 0.000E+00	 0.000E+00	 0.000E+00	 0.000E+00	 0.000E+00	 0.000E+00	 0.000E+00	 9.549E+00	 9.549E+00	 0.000E+00	 0.000E+00	 0.000E+00	|	 0.000E+00	 0.000E+00	 0.000E+00	|	 0.000E+00
 4.812E+00	|	          	|	 0.000E+00	 1.000E+00	 0.000E+00	 0.000E+00	 0.000E+00	 0.000E+00	 0.000E+00	 0.000E+00	 0.000E+00	 0.000E+00	 0.000E+00	 0.000E+00	|	 0.000E+00	 0.000E+00	 0.000E+00	|	 0.000E+00
 1.267E+00	|	          	|	 0.000E+00	 0.000E+00	 0.000E+00	 0.000E+00	 0.000E+00	 0.000E+00	 0.000E+00	 1.000E+00	 0.000E+00	 0.000E+00	 0.000E+00	 0.000E+00	|	 0.000E+00	 0.000E+00	 0.000E+00	|	 0.000E+00
 4.818E-03	|	          	|	 0.000E+00	 0.000E+00	 1.000E+00	 0.000E+00	 0.000E+00	 0.000E+00	 0.000E+00	 0.000E+00	 0.000E+00	 0.000E+00	 0.000E+00	 0.000E+00	|	 0.000E+00	 0.000E+00	 0.000E+00	|	 0.000E+00
-5.441E-07	|	          	|	 0.000E+00	 0.000E+00	 0.000E+00	 0.000E+00	 0.000E+00	 0.000E+00	 0.000E+00	 0.000E+00	 1.000E+00	 0.000E+00	 0.000E+00	 0.000E+00	|	 0.000E+00	 0.000E+00	 0.000E+00	|	 0.000E+00
 1.174E+03	|	          	|	 0.000E+00	 0.000E+00	 0.000E+00	 0.000E+00	 0.000E+00	 0.000E+00	 0.000E+00	 9.263E+02	 0.000E+00	 0.000E+00	 0.000E+00	 0.000E+00	|	 0.000E+00	 0.000E+00	 0.000E+00	|	 0.000E+00
 6.148E-04	|	          	|	-4.427E+00	-3.401E-02	-1.389E+01	 1.852E-01	 6.458E-02	 9.442E-02	-5.736E-02	-8.817E-02	-1.874E-01	 9.601E-03	 3.877E-03	 5.321E-03	|	-1.846E-01	-1.395E-01	 1.641E-01	|	 4.779E-02
 2.445E-04	|	          	|	 0.000E+00	 0.000E+00	 0.000E+00	 0.000E+00	 0.000E+00	 0.000E+00	 1.000E+00	 0.000E+00	 0.000E+00	 0.000E+00	 0.000E+00	 0.000E+00	|	 0.000E+00	 0.000E+00	 0.000E+00	|	 0.000E+00
 2.019E-01	|	          	|	 1.000E+00	 0.000E+00	 0.000E+00	 0.000E+00	 0.000E+00	 0.000E+00	 0.000E+00	 0.000E+00	 0.000E+00	 0.000E+00	 0.000E+00	 0.000E+00	|	 0.000E+00	 0.000E+00	 0.000E+00	|	 0.000E+00


--------- Azimuth =   9.00 deg (with respect to AzimB1Up =   0.00 deg) ---------
op State  	|	op        	|	A - State 	          	          	          	          	          	          	          	          	          	          	          	|	B - Input 	          	          	|	Bd - Dstrb
Derivativs	|	States    	|	Matrix    	          	          	          	          	          	          	          	          	          	          	          	|	Matrix    	          	          	|	Matrix    
 2.663E-04	|	 2.019E-01	|	 0.000E+00	 0.000E+00	 0.000E+00	 0.000E+00	 0.000E+00	 0.000E+00	 1.000E+00	 0.000E+00	 0.000E+00	 0.000E+00	 0.000E+00	 0.000E+00	|	 0.000E+00	 0.000E+00	 0.000E+00	|	 0.000E+00
 1.267E+00	|	 4.865E+00	|	 0.000E+00	 0.000E+00	 0.000E+00	 0.000E+00	 0.000E+00	 0.000E+00	 0.000E+00	 1.000E+00	 0.000E+00	 0.000E+00	 0.000E+00	 0.000E+00	|	 0.000E+00	 0.000E+00	 0.000E+00	|	 0.000E+00
-6.980E-07	|	 4.818E-03	|	 0.000E+00	 0.000E+00	 0.000E+00	 0.000E+00	 0.000E+00	 0.000E+00	 0.000E+00	 0.000E+00	 1.000E+00	 0.000E+00	 0.000E+00	 0.000E+00	|	 0.000E+00	 0.000E+00	 0.000E+00	|	 0.000E+00
 4.126E-01	|	 2.357E+00	|	 0.000E+00	 0.000E+00	 0.000E+00	 0.000E+00	 0.000E+00	 0.000E+00	 0.000E+00	 0.000E+00	 0.000E+00	 1.000E+00	 0.000E+00	 0.000E+00	|	 0.000E+00	 0.000E+00	 0.000E+00	|	 0.000E+00
-8.619E-02	|	 2.790E+00	|	 0.000E+00	 0.000E+00	 0.000E+00	 0.000E+00	 0.000E+00	 0.000E+00	 0.000E+00	 0.000E+00	 0.000E+00	 0.000E+00	 1.000E+00	 0.000E+00	|	 0.000E+00	 0.000E+00	 0.000E+00	|	 0.000E+00
-3.273E-01	|	 2.227E+00	|	 0.000E+00	 0.000E+00	 0.000E+00	 0.000E+00	 0.000E+00	 0.000E+00	 0.000E+00	 0.000E+00	 0.000E+00	 0.000E+00	 0.000E+00	 1.000E+00	|	 0.000E+00	 0.000E+00	 0.000E+00	|	 0.000E+00
 4.390E-04	|	 2.663E-04	|	-4.427E+00	-3.403E-02	-1.389E+01	 1.842E-01	 6.182E-02	 9.815E-02	-5.731E-02	-8.762E-02	-1.869E-01	 9.552E-03	 3.753E-03	 5.502E-03	|	-2.029E-01	-1.281E-01	 1.695E-01	|	 4.782E-02
-1.264E-05	|	 1.267E+00	|	 2.454E-09	-5.915E-09	 1.726E+02	 9.388E-09	-1.306E-09	 2.641E-09	-2.912E-09	-2.702E+00	 1.237E+00	 1.166E-09	-3.139E-10	 3.936E-10	|	-1.129E-07	-6.071E-08	 1.101E-07	|	 5.152E-09
-4.255E-06	|	-6.980E-07	|	-3.082E-02	-2.166E-04	-1.976E+02	 2.178E-02	 2.095E-02	 2.118E-02	-2.821E-03	 2.653E+00	-1.465E+00	 1.707E-03	 1.704E-03	 1.388E-03	|	 1.967E-01	 1.860E-01	 2.077E-01	|	 3.443E-03
 1.502E-01	|	 4.126E-01	|	 1.850E+01	 6.871E+00	 9.873E+02	-2.200E+01	-1.021E+00	-1.173E+00	-1.631E+01	-5.403E+01	-4.701E+01	-5.092E+00	-7.765E-02	-7.279E-02	|	-5.948E+02	-6.288E+00	-8.273E+00	|	 9.163E+00
-5.205E-01	|	-8.619E-02	|	 5.415E+00	-3.381E+00	 9.352E+02	-9.866E-01	-2.126E+01	-8.807E-01	-4.385E-01	-5.647E+01	-4.975E+01	-7.301E-02	-5.201E+00	-5.692E-02	|	-7.186E+00	-6.075E+02	-7.936E+00	|	 9.546E+00
 3.775E-01	|	-3.273E-01	|	 9.481E+00	-3.305E+00	 9.472E+02	-1.134E+00	-8.869E-01	-2.140E+01	-1.055E+01	-4.724E+01	-4.043E+01	-8.038E-02	-7.000E-02	-4.987E+00	|	-6.990E+00	-6.727E+00	-5.991E+02	|	 9.351E+00

op Output 	|	This colmn	|	C - Output	          	          	          	          	          	          	          	          	          	          	          	|	D - Trnsmt	          	          	|	Dd - DTsmt
Measurmnts	|	is blank  	|	Matrix    	          	          	          	          	          	          	          	          	          	          	          	|	Matrix    	          	          	|	Matrix    
 1.210E+01	|	          	|	 0.000E+00	 0.000E+00	 0.000E+00	 0.000E+00	 0.000E+00	 0.000E+00	 0.000E+00	 9.549E+00	 9.549E+00	 0.000E+00	 0.000E+00	 0.000E+00	|	 0.000E+00	 0.000E+00	 0.000E+00	|	 0.000E+00
 4.865E+00	|	          	|	 0.000E+00	 1.000E+00	 0.000E+00	 0.000E+00	 0.000E+00	 0.000E+00	 0.000E+00	 0.000E+00	 0.000E+00	 0.000E+00	 0.000E+00	 0.000E+00	|	 0.000E+00	 0.000E+00	 0.000E+00	|	 0.000E+00
 1.267E+00	|	          	|	 0.000E+00	 0.000E+00	 0.000E+00	 0.000E+00	 0.000E+00	 0.000E+00	 0.000E+00	 1.000E+00	 0.000E+00	 0.000E+00	 0.000E+00	 0.000E+00	|	 0.000E+00	 0.000E+00	 0.000E+00	|	 0.000E+00
 4.818E-03	|	          	|	 0.000E+00	 0.000E+00	 1.000E+00	 0.000E+00	 0.000E+00	 0.000E+00	 0.000E+00	 0.000E+00	 0.000E+00	 0.000E+00	 0.000E+00	 0.000E+00	|	 0.000E+00	 0.000E+00	 0.000E+00	|	 0.000E+00
-6.980E-07	|	          	|	 0.000E+00	 0.000E+00	 0.000E+00	 0.000E+00	 0.000E+00	 0.000E+00	 0.000E+00	 0.000E+00	 1.000E+00	 0.000E+00	 0.000E+00	 0.000E+00	|	 0.000E+00	 0.000E+00	 0.000E+00	|	 0.000E+00
 1.174E+03	|	          	|	 0.000E+00	 0.000E+00	 0.000E+00	 0.000E+00	 0.000E+00	 0.000E+00	 0.000E+00	 9.263E+02	 0.000E+00	 0.000E+00	 0.000E+00	 0.000E+00	|	 0.000E+00	 0.000E+00	 0.000E+00	|	 0.000E+00
 4.395E-04	|	          	|	-4.427E+00	-3.403E-02	-1.389E+01	 1.842E-01	 6.182E-02	 9.815E-02	-5.731E-02	-8.762E-02	-1.869E-01	 9.552E-03	 3.753E-03	 5.502E-03	|	-2.029E-01	-1.281E-01	 1.695E-01	|	 4.782E-02
 2.663E-04	|	          	|	 0.000E+00	 0.000E+00	 0.000E+00	 0.000E+00	 0.000E+00	 0.000E+00	 1.000E+00	 0.000E+00	 0.000E+00	 0.000E+00	 0.000E+00	 0.000E+00	|	 0.000E+00	 0.000E+00	 0.000E+00	|	 0.000E+00
 2.019E-01	|	          	|	 1.000E+00	 0.000E+00	 0.000E+00	 0.000E+00	 0.000E+00	 0.000E+00	 0.000E+00	 0.000E+00	 0.000E+00	 0.000E+00	 0.000E+00	 0.000E+00	|	 0.000E+00	 0.000E+00	 0.000E+00	|	 0.000E+00


--------- Azimuth =  12.00 deg (with respect to AzimB1Up =   0.00 deg) ---------
op State  	|	op        	|	A - State 	          	          	          	          	          	          	          	          	          	          	          	|	B - Input 	          	          	|	Bd - Dstrb
Derivativs	|	States    	|	Matrix    	          	          	          	          	          	          	          	          	          	          	          	|	Matrix    	          	          	|	Matrix    
 2.808E-04	|	 2.020E-01	|	 0.000E+00	 0.000E+00	 0.000E+00	 0.000E+00	 0.000E+00	 0.000E+00	 1.000E+00	 0.000E+00	 0.000E+00	 0.000E+00	 0.000E+00	 0.000E+00	|	 0.000E+00	 0.000E+00	 0.000E+00	|	 0.000E+00
 1.267E+00	|	 4.917E+00	|	 0.000E+00	 0.000E+00	 0.000E+00	 0.000E+00	 0.000E+00	 0.000E+00	 0.000E+00	 1.000E+00	 0.000E+00	 0.000E+00	 0.000E+00	 0.000E+00	|	 0.000E+00	 0.000E+00	 0.000E+00	|	 0.000E+00
-8.524E-07	|	 4.818E-03	|	 0.000E+00	 0.000E+00	 0.000E+00	 0.000E+00	 0.000E+00	 0.000E+00	 0.000E+00	 0.000E+00	 1.000E+00	 0.000E+00	 0.000E+00	 0.000E+00	|	 0.000E+00	 0.000E+00	 0.000E+00	|	 0.000E+00
 4.182E-01	|	 2.375E+00	|	 0.000E+00	 0.000E+00	 0.000E+00	 0.000E+00	 0.000E+00	 0.000E+00	 0.000E+00	 0.000E+00	 0.000E+00	 1.000E+00	 0.000E+00	 0.000E+00	|	 0.000E+00	 0.000E+00	 0.000E+00	|	 0.000E+00
-1.076E-01	|	 2.786E+00	|	 0.000E+00	 0.000E+00	 0.000E+00	 0.000E+00	 0.000E+00	 0.000E+00	 0.000E+00	 0.000E+00	 0.000E+00	 0.000E+00	 1.000E+00	 0.000E+00	|	 0.000E+00	 0.000E+00	 0.000E+00	|	 0.000E+00
-3.113E-01	|	 2.213E+00	|	 0.000E+00	 0.000E+00	 0.000E+00	 0.000E+00	 0.000E+00	 0.000E+00	 0.000E+00	 0.000E+00	 0.000E+00	 0.000E+00	 0.000E+00	 1.000E+00	|	 0.000E+00	 0.000E+00	 0.000E+00	|	 0.000E+00
 2.638E-04	|	 2.808E-04	|	-4.427E+00	-3.395E-02	-1.389E+01	 1.830E-01	 5.920E-02	 1.019E-01	-5.727E-02	-8.712E-02	-1.864E-01	 9.497E-03	 3.633E-03	 5.683E-03	|	-2.171E-01	-1.172E-01	 1.762E-01	|	 4.763E-02
-1.840E-05	|	 1.267E+00	|	-4.208E-09	-1.485E-09	 1.726E+02	 4.176E-09	-3.687E-10	 3.667E-09	 6.490E-09	-2.702E+00	 1.237E+00	 1.236E-09	-4.485E-10	-1.385E-09	|	-5.784E-08	 2.830E-07	 4.977E-08	|	 2.001E-10
-2.713E-06	|	-8.524E-07	|	-3.082E-02	-1.932E-04	-1.976E+02	 2.178E-02	 2.093E-02	 2.121E-02	-2.810E-03	 2.653E+00	-1.465E+00	 1.718E-03	 1.694E-03	 1.389E-03	|	 1.963E-01	 1.862E-01	 2.084E-01	|	 3.415E-03
 1.232E-01	|	 4.182E-01	|	 1.836E+01	 6.847E+00	 9.869E+02	-2.199E+01	-1.008E+00	-1.186E+00	-1.601E+01	-5.431E+01	-4.729E+01	-5.098E+00	-7.668E-02	-7.337E-02	|	-5.950E+02	-6.341E+00	-8.313E+00	|	 9.168E+00
-5.155E-01	|	-1.076E-01	|	 5.155E+00	-3.682E+00	 9.341E+02	-9.736E-01	-2.125E+01	-8.788E-01	-2.700E-01	-5.626E+01	-4.954E+01	-7.305E-02	-5.197E+00	-5.740E-02	|	-7.172E+00	-6.075E+02	-7.975E+00	|	 9.554E+00
 4.003E-01	|	-3.113E-01	|	 9.879E+00	-2.980E+00	 9.488E+02	-1.149E+00	-8.870E-01	-2.142E+01	-1.102E+01	-4.717E+01	-4.035E+01	-8.182E-02	-7.003E-02	-4.984E+00	|	-6.922E+00	-6.734E+00	-5.988E+02	|	 9.340E+00

op Output 	|	This colmn	|	C - Output	          	          	          	          	          	          	          	          	          	          	          	|	D - Trnsmt	          	          	|	Dd - DTsmt
Measurmnts	|	is blank  	|	Matrix    	          	          	          	          	          	          	          	          	          	          	          	|	Matrix    	          	          	|	Matrix    
 1.210E+01	|	          	|	 0.000E+00	 0.000E+00	 0.000E+00	 0.000E+00	 0.000E+00	 0.000E+00	 0.000E+00	 9.549E+00	 9.549E+00	 0.000E+00	 0.000E+00	 0.000E+00	|	 0.000E+00	 0.000E+00	 0.000E+00	|	 0.000E+00
 4.917E+00	|	          	|	 0.000E+00	 1.000E+00	 0.000E+00	 0.000E+00	 0.000E+00	 0.000E+00	 0.000E+00	 0.000E+00	 0.000E+00	 0.000E+00	 0.000E+00	 0.000E+00	|	 0.000E+00	 0.000E+00	 0.000E+00	|	 0.000E+00
 1.267E+00	|	          	|	 0.000E+00	 0.000E+00	 0.000E+00	 0.000E+00	 0.000E+00	 0.000E+00	 0.000E+00	 1.000E+00	 0.000E+00	 0.000E+00	 0.000E+00	 0.000E+00	|	 0.000E+00	 0.000E+00	 0.000E+00	|	 0.000E+00
 4.818E-03	|	          	|	 0.000E+00	 0.000E+00	 1.000E+00	 0.000E+00	 0.000E+00	 0.000E+00	 0.000E+00	 0.000E+00	 0.000E+00	 0.000E+00	 0.000E+00	 0.000E+00	|	 0.000E+00	 0.000E+00	 0.000E+00	|	 0.000E+00
-8.524E-07	|	          	|	 0.000E+00	 0.000E+00	 0.000E+00	 0.000E+00	 0.000E+00	 0.000E+00	 0.000E+00	 0.000E+00	 1.000E+00	 0.000E+00	 0.000E+00	 0.000E+00	|	 0.000E+00	 0.000E+00	 0.000E+00	|	 0.000E+00
 1.174E+03	|	          	|	 0.000E+00	 0.000E+00	 0.000E+00	 0.000E+00	 0.000E+00	 0.000E+00	 0.000E+00	 9.263E+02	 0.000E+00	 0.000E+00	 0.000E+00	 0.000E+00	|	 0.000E+00	 0.000E+00	 0.000E+00	|	 0.000E+00
 2.644E-04	|	          	|	-4.427E+00	-3.395E-02	-1.389E+01	 1.830E-01	 5.920E-02	 1.019E-01	-5.727E-02	-8.712E-02	-1.864E-01	 9.497E-03	 3.633E-03	 5.683E-03	|	-2.171E-01	-1.172E-01	 1.762E-01	|	 4.763E-02
 2.808E-04	|	          	|	 0.000E+00	 0.000E+00	 0.000E+00	 0.000E+00	 0.000E+00	 0.000E+00	 1.000E+00	 0.000E+00	 0.000E+00	 0.000E+00	 0.000E+00	 0.000E+00	|	 0.000E+00	 0.000E+00	 0.000E+00	|	 0.000E+00
 2.020E-01	|	          	|	 1.000E+00	 0.000E+00	 0.000E+00	 0.000E+00	 0.000E+00	 0.000E+00	 0.000E+00	 0.000E+00	 0.000E+00	 0.000E+00	 0.000E+00	 0.000E+00	|	 0.000E+00	 0.000E+00	 0.000E+00	|	 0.000E+00


--------- Azimuth =  15.00 deg (with respect to AzimB1Up =   0.00 deg) ---------
op State  	|	op        	|	A - State 	          	          	          	          	          	          	          	          	          	          	          	|	B - Input 	          	          	|	Bd - Dstrb
Derivativs	|	States    	|	Matrix    	          	          	          	          	          	          	          	          	          	          	          	|	Matrix    	          	          	|	Matrix    
 2.881E-04	|	 2.020E-01	|	 0.000E+00	 0.000E+00	 0.000E+00	 0.000E+00	 0.000E+00	 0.000E+00	 1.000E+00	 0.000E+00	 0.000E+00	 0.000E+00	 0.000E+00	 0.000E+00	|	 0.000E+00	 0.000E+00	 0.000E+00	|	 0.000E+00
 1.267E+00	|	 4.969E+00	|	 0.000E+00	 0.000E+00	 0.000E+00	 0.000E+00	 0.000E+00	 0.000E+00	 0.000E+00	 1.000E+00	 0.000E+00	 0.000E+00	 0.000E+00	 0.000E+00	|	 0.000E+00	 0.000E+00	 0.000E+00	|	 0.000E+00
-8.961E-07	|	 4.818E-03	|	 0.000E+00	 0.000E+00	 0.000E+00	 0.000E+00	 0.000E+00	 0.000E+00	 0.000E+00	 0.000E+00	 1.000E+00	 0.000E+00	 0.000E+00	 0.000E+00	|	 0.000E+00	 0.000E+00	 0.000E+00	|	 0.000E+00