
This linearized model file was generated by FAST (v7.02.00d-bjj, 20-Feb-2013) on 12-Jul-2018 at 22:05:46.
The aerodynamic calculations were made by AeroDyn (v13.00.02a-bjj, 20-Feb-2013).

 NREL 5.0 MW Baseline Wind Turbine for Use in Offshore Analysis.


Some Useful Information:

   Type of steady state solution found                Trimmed collective blade pitch (TrimCase = 3)
   Azimuth-average rotor speed, RotSpeed      (rad/s)    1.26711E+00
   Period of steady state solution              (sec)    4.95868E+00
   Iterations needed to find steady state solution     101
   Displacement 2-norm of steady state solution (rad)    3.72703E-05
   Velocity 2-norm of steady state solution   (rad/s)    8.01120E-06
   Number of equally-speced azimuth steps, NAzimStep   120
   Order of linearized model, MdlOrder                   1
   Number of active (enabled) DOFs                       6 (12 states)
   Number of control inputs, NInputs                     3
   Number of input wind disturbances, NDisturbs          1
   Number of output measurements                         9


Order of States in Linearized State Matrices:

   Row/column  1 = 1st tower fore-aft bending mode DOF (internal DOF index = DOF_TFA1)
   Row/column  2 = Variable speed generator DOF (internal DOF index = DOF_GeAz)
   Row/column  3 = Drivetrain rotational-flexibility DOF (internal DOF index = DOF_DrTr)
   Row/column  4 = 1st flapwise bending-mode DOF of blade 1 (internal DOF index = DOF_BF(1,1))
   Row/column  5 = 1st flapwise bending-mode DOF of blade 2 (internal DOF index = DOF_BF(2,1))
   Row/column  6 = 1st flapwise bending-mode DOF of blade 3 (internal DOF index = DOF_BF(3,1))
   Row/column  7 to 12 = First derivatives of row/column  1 to  6.


Order of Control Inputs in Linearized State Matrices:

   Column 1 = individual pitch of blade 1       (rad)    1.17627E-01 op
   Column 2 = individual pitch of blade 2       (rad)    1.17627E-01 op
   Column 3 = individual pitch of blade 3       (rad)    1.17627E-01 op


Order of Input Wind Disturbances in Linearized State Matrices:

   Column 1 = horizontal hub-height wind speed  (m/s) : See selected wind file for op


Order of Output Measurements in Linearized State Matrices:

   Row   1 = RotSpeed   (rpm)     
   Row   2 = Q_GeAz     (rad)     
   Row   3 = QD_GeAz    (rad/s)   
   Row   4 = Q_DrTr     (rad)     
   Row   5 = QD_DrTr    (rad/s)   
   Row   6 = GenSpeed   (rpm)     
   Row   7 = QD2_TFA1   (m/s^2)   
   Row   8 = QD_TFA1    (m/s)     
   Row   9 = Q_TFA1     (m)       


Linearized State Matrices:

--------- Azimuth =   0.00 deg (with respect to AzimB1Up =   0.00 deg) ---------
op State  	|	op        	|	A - State 	          	          	          	          	          	          	          	          	          	          	          	|	B - Input 	          	          	|	Bd - Dstrb
Derivativs	|	States    	|	Matrix    	          	          	          	          	          	          	          	          	          	          	          	|	Matrix    	          	          	|	Matrix    
 1.104E-04	|	 2.649E-01	|	 0.000E+00	 0.000E+00	 0.000E+00	 0.000E+00	 0.000E+00	 0.000E+00	 1.000E+00	 0.000E+00	 0.000E+00	 0.000E+00	 0.000E+00	 0.000E+00	|	 0.000E+00	 0.000E+00	 0.000E+00	|	 0.000E+00
 1.267E+00	|	 4.708E+00	|	 0.000E+00	 0.000E+00	 0.000E+00	 0.000E+00	 0.000E+00	 0.000E+00	 0.000E+00	 1.000E+00	 0.000E+00	 0.000E+00	 0.000E+00	 0.000E+00	|	 0.000E+00	 0.000E+00	 0.000E+00	|	 0.000E+00
-6.860E-08	|	 4.818E-03	|	 0.000E+00	 0.000E+00	 0.000E+00	 0.000E+00	 0.000E+00	 0.000E+00	 0.000E+00	 0.000E+00	 1.000E+00	 0.000E+00	 0.000E+00	 0.000E+00	|	 0.000E+00	 0.000E+00	 0.000E+00	|	 0.000E+00
 3.694E-01	|	 3.510E+00	|	 0.000E+00	 0.000E+00	 0.000E+00	 0.000E+00	 0.000E+00	 0.000E+00	 0.000E+00	 0.000E+00	 0.000E+00	 1.000E+00	 0.000E+00	 0.000E+00	|	 0.000E+00	 0.000E+00	 0.000E+00	|	 0.000E+00
-6.161E-03	|	 3.998E+00	|	 0.000E+00	 0.000E+00	 0.000E+00	 0.000E+00	 0.000E+00	 0.000E+00	 0.000E+00	 0.000E+00	 0.000E+00	 0.000E+00	 1.000E+00	 0.000E+00	|	 0.000E+00	 0.000E+00	 0.000E+00	|	 0.000E+00
-3.647E-01	|	 3.498E+00	|	 0.000E+00	 0.000E+00	 0.000E+00	 0.000E+00	 0.000E+00	 0.000E+00	 0.000E+00	 0.000E+00	 0.000E+00	 0.000E+00	 0.000E+00	 1.000E+00	|	 0.000E+00	 0.000E+00	 0.000E+00	|	 0.000E+00
 4.191E-04	|	 1.104E-04	|	-4.433E+00	-3.219E-02	-1.031E+01	 1.862E-01	 7.004E-02	 8.280E-02	-5.231E-02	-7.265E-02	-1.463E-01	 9.157E-03	 3.940E-03	 4.204E-03	|	 5.959E-03	-1.085E-01	 1.574E-01	|	 4.424E-02
-9.556E-06	|	 1.267E+00	|	 3.011E-09	 9.901E-10	 1.726E+02	-2.322E-09	 2.711E-09	-6.876E-10	 1.740E-09	-2.703E+00	 1.237E+00	-1.146E-10	 6.079E-10	-6.976E-10	|	-3.048E-08	 8.377E-08	-1.605E-07	|	 5.030E-09
 2.039E-06	|	-6.860E-08	|	-2.290E-02	-9.776E-05	-1.964E+02	 1.568E-02	 1.514E-02	 1.521E-02	-5.448E-03	 2.603E+00	-1.506E+00	 7.230E-04	 7.117E-04	 4.832E-04	|	 1.639E-01	 1.497E-01	 1.626E-01	|	 6.313E-03
 2.491E-01	|	 3.694E-01	|	 1.871E+01	 6.503E+00	 7.114E+02	-2.167E+01	-7.100E-01	-7.642E-01	-1.537E+01	 2.161E+00	 7.211E+00	-4.494E+00	-3.260E-02	-2.718E-02	|	-5.345E+02	-3.286E+00	-4.760E+00	|	 9.164E+00
-5.192E-01	|	-6.161E-03	|	 6.626E+00	-1.946E+00	 6.730E+02	-6.731E-01	-2.113E+01	-5.284E-01	-6.903E-01	 1.386E+00	 6.221E+00	-3.387E-02	-4.634E+00	-2.082E-02	|	-4.820E+00	-5.430E+02	-4.958E+00	|	 9.669E+00
 2.735E-01	|	-3.647E-01	|	 7.697E+00	-4.437E+00	 6.739E+02	-7.197E-01	-5.283E-01	-2.118E+01	-8.610E+00	 7.025E+00	 1.188E+01	-3.609E-02	-2.771E-02	-4.494E+00	|	-4.827E+00	-4.252E+00	-5.493E+02	|	 9.435E+00

op Output 	|	This colmn	|	C - Output	          	          	          	          	          	          	          	          	          	          	          	|	D - Trnsmt	          	          	|	Dd - DTsmt
Measurmnts	|	is blank  	|	Matrix    	          	          	          	          	          	          	          	          	          	          	          	|	Matrix    	          	          	|	Matrix    
 1.210E+01	|	          	|	 0.000E+00	 0.000E+00	 0.000E+00	 0.000E+00	 0.000E+00	 0.000E+00	 0.000E+00	 9.549E+00	 9.549E+00	 0.000E+00	 0.000E+00	 0.000E+00	|	 0.000E+00	 0.000E+00	 0.000E+00	|	 0.000E+00
 4.708E+00	|	          	|	 0.000E+00	 1.000E+00	 0.000E+00	 0.000E+00	 0.000E+00	 0.000E+00	 0.000E+00	 0.000E+00	 0.000E+00	 0.000E+00	 0.000E+00	 0.000E+00	|	 0.000E+00	 0.000E+00	 0.000E+00	|	 0.000E+00
 1.267E+00	|	          	|	 0.000E+00	 0.000E+00	 0.000E+00	 0.000E+00	 0.000E+00	 0.000E+00	 0.000E+00	 1.000E+00	 0.000E+00	 0.000E+00	 0.000E+00	 0.000E+00	|	 0.000E+00	 0.000E+00	 0.000E+00	|	 0.000E+00
 4.818E-03	|	          	|	 0.000E+00	 0.000E+00	 1.000E+00	 0.000E+00	 0.000E+00	 0.000E+00	 0.000E+00	 0.000E+00	 0.000E+00	 0.000E+00	 0.000E+00	 0.000E+00	|	 0.000E+00	 0.000E+00	 0.000E+00	|	 0.000E+00
-6.860E-08	|	          	|	 0.000E+00	 0.000E+00	 0.000E+00	 0.000E+00	 0.000E+00	 0.000E+00	 0.000E+00	 0.000E+00	 1.000E+00	 0.000E+00	 0.000E+00	 0.000E+00	|	 0.000E+00	 0.000E+00	 0.000E+00	|	 0.000E+00
 1.174E+03	|	          	|	 0.000E+00	 0.000E+00	 0.000E+00	 0.000E+00	 0.000E+00	 0.000E+00	 0.000E+00	 9.263E+02	 0.000E+00	 0.000E+00	 0.000E+00	 0.000E+00	|	 0.000E+00	 0.000E+00	 0.000E+00	|	 0.000E+00
 4.193E-04	|	          	|	-4.433E+00	-3.219E-02	-1.031E+01	 1.862E-01	 7.004E-02	 8.280E-02	-5.231E-02	-7.265E-02	-1.463E-01	 9.157E-03	 3.940E-03	 4.204E-03	|	 5.959E-03	-1.085E-01	 1.574E-01	|	 4.424E-02
 1.104E-04	|	          	|	 0.000E+00	 0.000E+00	 0.000E+00	 0.000E+00	 0.000E+00	 0.000E+00	 1.000E+00	 0.000E+00	 0.000E+00	 0.000E+00	 0.000E+00	 0.000E+00	|	 0.000E+00	 0.000E+00	 0.000E+00	|	 0.000E+00
 2.649E-01	|	          	|	 1.000E+00	 0.000E+00	 0.000E+00	 0.000E+00	 0.000E+00	 0.000E+00	 0.000E+00	 0.000E+00	 0.000E+00	 0.000E+00	 0.000E+00	 0.000E+00	|	 0.000E+00	 0.000E+00	 0.000E+00	|	 0.000E+00


--------- Azimuth =   3.00 deg (with respect to AzimB1Up =   0.00 deg) ---------
op State  	|	op        	|	A - State 	          	          	          	          	          	          	          	          	          	          	          	|	B - Input 	          	          	|	Bd - Dstrb
Derivativs	|	States    	|	Matrix    	          	          	          	          	          	          	          	          	          	          	          	|	Matrix    	          	          	|	Matrix    
 1.262E-04	|	 2.649E-01	|	 0.000E+00	 0.000E+00	 0.000E+00	 0.000E+00	 0.000E+00	 0.000E+00	 1.000E+00	 0.000E+00	 0.000E+00	 0.000E+00	 0.000E+00	 0.000E+00	|	 0.000E+00	 0.000E+00	 0.000E+00	|	 0.000E+00
 1.267E+00	|	 4.760E+00	|	 0.000E+00	 0.000E+00	 0.000E+00	 0.000E+00	 0.000E+00	 0.000E+00	 0.000E+00	 1.000E+00	 0.000E+00	 0.000E+00	 0.000E+00	 0.000E+00	|	 0.000E+00	 0.000E+00	 0.000E+00	|	 0.000E+00
-4.929E-09	|	 4.818E-03	|	 0.000E+00	 0.000E+00	 0.000E+00	 0.000E+00	 0.000E+00	 0.000E+00	 0.000E+00	 0.000E+00	 1.000E+00	 0.000E+00	 0.000E+00	 0.000E+00	|	 0.000E+00	 0.000E+00	 0.000E+00	|	 0.000E+00
 3.792E-01	|	 3.525E+00	|	 0.000E+00	 0.000E+00	 0.000E+00	 0.000E+00	 0.000E+00	 0.000E+00	 0.000E+00	 0.000E+00	 0.000E+00	 1.000E+00	 0.000E+00	 0.000E+00	|	 0.000E+00	 0.000E+00	 0.000E+00	|	 0.000E+00
-2.761E-02	|	 3.997E+00	|	 0.000E+00	 0.000E+00	 0.000E+00	 0.000E+00	 0.000E+00	 0.000E+00	 0.000E+00	 0.000E+00	 0.000E+00	 0.000E+00	 1.000E+00	 0.000E+00	|	 0.000E+00	 0.000E+00	 0.000E+00	|	 0.000E+00
-3.529E-01	|	 3.483E+00	|	 0.000E+00	 0.000E+00	 0.000E+00	 0.000E+00	 0.000E+00	 0.000E+00	 0.000E+00	 0.000E+00	 0.000E+00	 0.000E+00	 0.000E+00	 1.000E+00	|	 0.000E+00	 0.000E+00	 0.000E+00	|	 0.000E+00
 3.440E-04	|	 1.262E-04	|	-4.433E+00	-3.210E-02	-1.031E+01	 1.857E-01	 6.690E-02	 8.643E-02	-5.233E-02	-7.234E-02	-1.459E-01	 9.149E-03	 3.787E-03	 4.367E-03	|	-9.410E-03	-1.011E-01	 1.659E-01	|	 4.426E-02
-9.657E-06	|	 1.267E+00	|	 9.169E-11	 3.869E-09	 1.726E+02	 3.538E-09	-2.805E-09	 1.585E-09	 1.706E-09	-2.703E+00	 1.237E+00	 1.704E-09	 2.342E-10	 2.073E-09	|	 9.263E-08	-2.410E-08	-1.381E-07	|	-3.606E-09
 1.016E-06	|	-4.929E-09	|	-2.290E-02	-8.107E-05	-1.964E+02	 1.568E-02	 1.513E-02	 1.523E-02	-5.450E-03	 2.603E+00	-1.506E+00	 7.304E-04	 7.043E-04	 4.843E-04	|	 1.635E-01	 1.497E-01	 1.631E-01	|	 6.313E-03
 2.242E-01	|	 3.792E-01	|	 1.866E+01	 6.563E+00	 7.113E+02	-2.167E+01	-6.961E-01	-7.786E-01	-1.512E+01	 1.997E+00	 7.045E+00	-4.498E+00	-3.164E-02	-2.784E-02	|	-5.342E+02	-3.320E+00	-4.808E+00	|	 9.169E+00
-5.185E-01	|	-2.761E-02	|	 6.303E+00	-2.269E+00	 6.719E+02	-6.581E-01	-2.112E+01	-5.269E-01	-4.870E-01	 1.530E+00	 6.360E+00	-3.355E-02	-4.635E+00	-2.095E-02	|	-4.815E+00	-5.435E+02	-4.991E+00	|	 9.678E+00
 2.984E-01	|	-3.529E-01	|	 8.066E+00	-4.169E+00	 6.751E+02	-7.349E-01	-5.289E-01	-2.119E+01	-9.055E+00	 7.040E+00	 1.191E+01	-3.692E-02	-2.747E-02	-4.489E+00	|	-4.771E+00	-4.232E+00	-5.491E+02	|	 9.420E+00

op Output 	|	This colmn	|	C - Output	          	          	          	          	          	          	          	          	          	          	          	|	D - Trnsmt	          	          	|	Dd - DTsmt
Measurmnts	|	is blank  	|	Matrix    	          	          	          	          	          	          	          	          	          	          	          	|	Matrix    	          	          	|	Matrix    
 1.210E+01	|	          	|	 0.000E+00	 0.000E+00	 0.000E+00	 0.000E+00	 0.000E+00	 0.000E+00	 0.000E+00	 9.549E+00	 9.549E+00	 0.000E+00	 0.000E+00	 0.000E+00	|	 0.000E+00	 0.000E+00	 0.000E+00	|	 0.000E+00
 4.760E+00	|	          	|	 0.000E+00	 1.000E+00	 0.000E+00	 0.000E+00	 0.000E+00	 0.000E+00	 0.000E+00	 0.000E+00	 0.000E+00	 0.000E+00	 0.000E+00	 0.000E+00	|	 0.000E+00	 0.000E+00	 0.000E+00	|	 0.000E+00
 1.267E+00	|	          	|	 0.000E+00	 0.000E+00	 0.000E+00	 0.000E+00	 0.000E+00	 0.000E+00	 0.000E+00	 1.000E+00	 0.000E+00	 0.000E+00	 0.000E+00	 0.000E+00	|	 0.000E+00	 0.000E+00	 0.000E+00	|	 0.000E+00
 4.818E-03	|	          	|	 0.000E+00	 0.000E+00	 1.000E+00	 0.000E+00	 0.000E+00	 0.000E+00	 0.000E+00	 0.000E+00	 0.000E+00	 0.000E+00	 0.000E+00	 0.000E+00	|	 0.000E+00	 0.000E+00	 0.000E+00	|	 0.000E+00
-4.929E-09	|	          	|	 0.000E+00	 0.000E+00	 0.000E+00	 0.000E+00	 0.000E+00	 0.000E+00	 0.000E+00	 0.000E+00	 1.000E+00	 0.000E+00	 0.000E+00	 0.000E+00	|	 0.000E+00	 0.000E+00	 0.000E+00	|	 0.000E+00
 1.174E+03	|	          	|	 0.000E+00	 0.000E+00	 0.000E+00	 0.000E+00	 0.000E+00	 0.000E+00	 0.000E+00	 9.263E+02	 0.000E+00	 0.000E+00	 0.000E+00	 0.000E+00	|	 0.000E+00	 0.000E+00	 0.000E+00	|	 0.000E+00
 3.442E-04	|	          	|	-4.433E+00	-3.210E-02	-1.031E+01	 1.857E-01	 6.690E-02	 8.643E-02	-5.233E-02	-7.234E-02	-1.459E-01	 9.149E-03	 3.787E-03	 4.367E-03	|	-9.410E-03	-1.011E-01	 1.659E-01	|	 4.426E-02
 1.262E-04	|	          	|	 0.000E+00	 0.000E+00	 0.000E+00	 0.000E+00	 0.000E+00	 0.000E+00	 1.000E+00	 0.000E+00	 0.000E+00	 0.000E+00	 0.000E+00	 0.000E+00	|	 0.000E+00	 0.000E+00	 0.000E+00	|	 0.000E+00
 2.649E-01	|	          	|	 1.000E+00	 0.000E+00	 0.000E+00	 0.000E+00	 0.000E+00	 0.000E+00	 0.000E+00	 0.000E+00	 0.000E+00	 0.000E+00	 0.000E+00	 0.000E+00	|	 0.000E+00	 0.000E+00	 0.000E+00	|	 0.000E+00


--------- Azimuth =   6.00 deg (with respect to AzimB1Up =   0.00 deg) ---------
op State  	|	op        	|	A - State 	          	          	          	          	          	          	          	          	          	          	          	|	B - Input 	          	          	|	Bd - Dstrb
Derivativs	|	States    	|	Matrix    	          	          	          	          	          	          	          	          	          	          	          	|	Matrix    	          	          	|	Matrix    
 1.389E-04	|	 2.649E-01	|	 0.000E+00	 0.000E+00	 0.000E+00	 0.000E+00	 0.000E+00	 0.000E+00	 1.000E+00	 0.000E+00	 0.000E+00	 0.000E+00	 0.000E+00	 0.000E+00	|	 0.000E+00	 0.000E+00	 0.000E+00	|	 0.000E+00
 1.267E+00	|	 4.812E+00	|	 0.000E+00	 0.000E+00	 0.000E+00	 0.000E+00	 0.000E+00	 0.000E+00	 0.000E+00	 1.000E+00	 0.000E+00	 0.000E+00	 0.000E+00	 0.000E+00	|	 0.000E+00	 0.000E+00	 0.000E+00	|	 0.000E+00
 3.678E-08	|	 4.818E-03	|	 0.000E+00	 0.000E+00	 0.000E+00	 0.000E+00	 0.000E+00	 0.000E+00	 0.000E+00	 0.000E+00	 1.000E+00	 0.000E+00	 0.000E+00	 0.000E+00	|	 0.000E+00	 0.000E+00	 0.000E+00	|	 0.000E+00
 3.879E-01	|	 3.541E+00	|	 0.000E+00	 0.000E+00	 0.000E+00	 0.000E+00	 0.000E+00	 0.000E+00	 0.000E+00	 0.000E+00	 0.000E+00	 1.000E+00	 0.000E+00	 0.000E+00	|	 0.000E+00	 0.000E+00	 0.000E+00	|	 0.000E+00
-4.900E-02	|	 3.996E+00	|	 0.000E+00	 0.000E+00	 0.000E+00	 0.000E+00	 0.000E+00	 0.000E+00	 0.000E+00	 0.000E+00	 0.000E+00	 0.000E+00	 1.000E+00	 0.000E+00	|	 0.000E+00	 0.000E+00	 0.000E+00	|	 0.000E+00
-3.401E-01	|	 3.469E+00	|	 0.000E+00	 0.000E+00	 0.000E+00	 0.000E+00	 0.000E+00	 0.000E+00	 0.000E+00	 0.000E+00	 0.000E+00	 0.000E+00	 0.000E+00	 1.000E+00	|	 0.000E+00	 0.000E+00	 0.000E+00	|	 0.000E+00
 2.672E-04	|	 1.389E-04	|	-4.433E+00	-3.222E-02	-1.031E+01	 1.851E-01	 6.388E-02	 9.013E-02	-5.235E-02	-7.204E-02	-1.456E-01	 9.128E-03	 3.641E-03	 4.532E-03	|	-2.382E-02	-9.412E-02	 1.742E-01	|	 4.424E-02
-9.605E-06	|	 1.267E+00	|	-3.412E-09	-6.866E-09	 1.726E+02	 4.868E-09	-2.227E-09	 2.611E-09	-3.125E-09	-2.703E+00	 1.237E+00	-8.571E-10	 1.026E-09	-5.581E-10	|	 9.067E-08	-4.690E-08	 4.586E-08	|	-1.219E-09
 8.248E-07	|	 3.678E-08	|	-2.290E-02	-8.511E-05	-1.964E+02	 1.568E-02	 1.512E-02	 1.524E-02	-5.453E-03	 2.603E+00	-1.506E+00	 7.367E-04	 6.967E-04	 4.859E-04	|	 1.632E-01	 1.496E-01	 1.636E-01	|	 6.312E-03
 1.989E-01	|	 3.879E-01	|	 1.859E+01	 6.602E+00	 7.112E+02	-2.167E+01	-6.823E-01	-7.928E-01	-1.486E+01	 1.835E+00	 6.882E+00	-4.503E+00	-3.086E-02	-2.851E-02	|	-5.340E+02	-3.350E+00	-4.856E+00	|	 9.175E+00
-5.165E-01	|	-4.900E-02	|	 5.993E+00	-2.588E+00	 6.708E+02	-6.435E-01	-2.112E+01	-5.251E-01	-3.049E-01	 1.679E+00	 6.503E+00	-3.312E-02	-4.636E+00	-2.095E-02	|	-4.813E+00	-5.440E+02	-5.025E+00	|	 9.687E+00
 3.226E-01	|	-3.401E-01	|	 8.442E+00	-3.889E+00	 6.763E+02	-7.502E-01	-5.294E-01	-2.120E+01	-9.497E+00	 7.045E+00	 1.192E+01	-3.772E-02	-2.714E-02	-4.485E+00	|	-4.714E+00	-4.209E+00	-5.488E+02	|	 9.405E+00

op Output 	|	This colmn	|	C - Output	          	          	          	          	          	          	          	          	          	          	          	|	D - Trnsmt	          	          	|	Dd - DTsmt
Measurmnts	|	is blank  	|	Matrix    	          	          	          	          	          	          	          	          	          	          	          	|	Matrix    	          	          	|	Matrix    
 1.210E+01	|	          	|	 0.000E+00	 0.000E+00	 0.000E+00	 0.000E+00	 0.000E+00	 0.000E+00	 0.000E+00	 9.549E+00	 9.549E+00	 0.000E+00	 0.000E+00	 0.000E+00	|	 0.000E+00	 0.000E+00	 0.000E+00	|	 0.000E+00
 4.812E+00	|	          	|	 0.000E+00	 1.000E+00	 0.000E+00	 0.000E+00	 0.000E+00	 0.000E+00	 0.000E+00	 0.000E+00	 0.000E+00	 0.000E+00	 0.000E+00	 0.000E+00	|	 0.000E+00	 0.000E+00	 0.000E+00	|	 0.000E+00
 1.267E+00	|	          	|	 0.000E+00	 0.000E+00	 0.000E+00	 0.000E+00	 0.000E+00	 0.000E+00	 0.000E+00	 1.000E+00	 0.000E+00	 0.000E+00	 0.000E+00	 0.000E+00	|	 0.000E+00	 0.000E+00	 0.000E+00	|	 0.000E+00
 4.818E-03	|	          	|	 0.000E+00	 0.000E+00	 1.000E+00	 0.000E+00	 0.000E+00	 0.000E+00	 0.000E+00	 0.000E+00	 0.000E+00	 0.000E+00	 0.000E+00	 0.000E+00	|	 0.000E+00	 0.000E+00	 0.000E+00	|	 0.000E+00
 3.678E-08	|	          	|	 0.000E+00	 0.000E+00	 0.000E+00	 0.000E+00	 0.000E+00	 0.000E+00	 0.000E+00	 0.000E+00	 1.000E+00	 0.000E+00	 0.000E+00	 0.000E+00	|	 0.000E+00	 0.000E+00	 0.000E+00	|	 0.000E+00
 1.174E+03	|	          	|	 0.000E+00	 0.000E+00	 0.000E+00	 0.000E+00	 0.000E+00	 0.000E+00	 0.000E+00	 9.263E+02	 0.000E+00	 0.000E+00	 0.000E+00	 0.000E+00	|	 0.000E+00	 0.000E+00	 0.000E+00	|	 0.000E+00
 2.673E-04	|	          	|	-4.433E+00	-3.222E-02	-1.031E+01	 1.851E-01	 6.388E-02	 9.013E-02	-5.235E-02	-7.204E-02	-1.456E-01	 9.128E-03	 3.641E-03	 4.532E-03	|	-2.382E-02	-9.412E-02	 1.742E-01	|	 4.424E-02
 1.389E-04	|	          	|	 0.000E+00	 0.000E+00	 0.000E+00	 0.000E+00	 0.000E+00	 0.000E+00	 1.000E+00	 0.000E+00	 0.000E+00	 0.000E+00	 0.000E+00	 0.000E+00	|	 0.000E+00	 0.000E+00	 0.000E+00	|	 0.000E+00
 2.649E-01	|	          	|	 1.000E+00	 0.000E+00	 0.000E+00	 0.000E+00	 0.000E+00	 0.000E+00	 0.000E+00	 0.000E+00	 0.000E+00	 0.000E+00	 0.000E+00	 0.000E+00	|	 0.000E+00	 0.000E+00	 0.000E+00	|	 0.000E+00


--------- Azimuth =   9.00 deg (with respect to AzimB1Up =   0.00 deg) ---------
op State  	|	op        	|	A - State 	          	          	          	          	          	          	          	          	          	          	          	|	B - Input 	          	          	|	Bd - Dstrb
Derivativs	|	States    	|	Matrix    	          	          	          	          	          	          	          	          	          	          	          	|	Matrix    	          	          	|	Matrix    
 1.482E-04	|	 2.650E-01	|	 0.000E+00	 0.000E+00	 0.000E+00	 0.000E+00	 0.000E+00	 0.000E+00	 1.000E+00	 0.000E+00	 0.000E+00	 0.000E+00	 0.000E+00	 0.000E+00	|	 0.000E+00	 0.000E+00	 0.000E+00	|	 0.000E+00
 1.267E+00	|	 4.865E+00	|	 0.000E+00	 0.000E+00	 0.000E+00	 0.000E+00	 0.000E+00	 0.000E+00	 0.000E+00	 1.000E+00	 0.000E+00	 0.000E+00	 0.000E+00	 0.000E+00	|	 0.000E+00	 0.000E+00	 0.000E+00	|	 0.000E+00
 5.075E-08	|	 4.818E-03	|	 0.000E+00	 0.000E+00	 0.000E+00	 0.000E+00	 0.000E+00	 0.000E+00	 0.000E+00	 0.000E+00	 1.000E+00	 0.000E+00	 0.000E+00	 0.000E+00	|	 0.000E+00	 0.000E+00	 0.000E+00	|	 0.000E+00
 3.956E-01	|	 3.557E+00	|	 0.000E+00	 0.000E+00	 0.000E+00	 0.000E+00	 0.000E+00	 0.000E+00	 0.000E+00	 0.000E+00	 0.000E+00	 1.000E+00	 0.000E+00	 0.000E+00	|	 0.000E+00	 0.000E+00	 0.000E+00	|	 0.000E+00
-7.028E-02	|	 3.993E+00	|	 0.000E+00	 0.000E+00	 0.000E+00	 0.000E+00	 0.000E+00	 0.000E+00	 0.000E+00	 0.000E+00	 0.000E+00	 0.000E+00	 1.000E+00	 0.000E+00	|	 0.000E+00	 0.000E+00	 0.000E+00	|	 0.000E+00
-3.263E-01	|	 3.455E+00	|	 0.000E+00	 0.000E+00	 0.000E+00	 0.000E+00	 0.000E+00	 0.000E+00	 0.000E+00	 0.000E+00	 0.000E+00	 0.000E+00	 0.000E+00	 1.000E+00	|	 0.000E+00	 0.000E+00	 0.000E+00	|	 0.000E+00
 1.809E-04	|	 1.482E-04	|	-4.433E+00	-3.217E-02	-1.031E+01	 1.842E-01	 6.099E-02	 9.389E-02	-5.236E-02	-7.181E-02	-1.454E-01	 9.105E-03	 3.502E-03	 4.701E-03	|	-3.904E-02	-8.760E-02	 1.821E-01	|	 4.424E-02
-9.053E-06	|	 1.267E+00	|	 6.329E-09	-2.632E-09	 1.726E+02	-1.485E-09	 2.322E-09	 3.956E-09	 5.829E-09	-2.703E+00	 1.237E+00	 5.830E-10	 2.083E-09	 2.143E-10	|	-2.931E-08	 5.146E-08	-1.261E-07	|	-2.565E-09
-1.358E-07	|	 5.075E-08	|	-2.290E-02	-8.428E-05	-1.964E+02	 1.567E-02	 1.510E-02	 1.526E-02	-5.455E-03	 2.603E+00	-1.506E+00	 7.427E-04	 6.883E-04	 4.875E-04	|	 1.627E-01	 1.495E-01	 1.641E-01	|	 6.314E-03
 1.728E-01	|	 3.956E-01	|	 1.850E+01	 6.625E+00	 7.110E+02	-2.166E+01	-6.689E-01	-8.068E-01	-1.458E+01	 1.677E+00	 6.722E+00	-4.506E+00	-2.995E-02	-2.915E-02	|	-5.338E+02	-3.380E+00	-4.901E+00	|	 9.181E+00
-5.132E-01	|	-7.028E-02	|	 5.698E+00	-2.900E+00	 6.698E+02	-6.295E-01	-2.111E+01	-5.231E-01	-1.449E-01	 1.836E+00	 6.654E+00	-3.284E-02	-4.636E+00	-2.108E-02	|	-4.806E+00	-5.445E+02	-5.052E+00	|	 9.696E+00
 3.459E-01	|	-3.263E-01	|	 8.827E+00	-3.599E+00	 6.775E+02	-7.652E-01	-5.297E-01	-2.121E+01	-9.935E+00	 7.040E+00	 1.192E+01	-3.839E-02	-2.686E-02	-4.480E+00	|	-4.645E+00	-4.183E+00	-5.486E+02	|	 9.390E+00

op Output 	|	This colmn	|	C - Output	          	          	          	          	          	          	          	          	          	          	          	|	D - Trnsmt	          	          	|	Dd - DTsmt
Measurmnts	|	is blank  	|	Matrix    	          	          	          	          	          	          	          	          	          	          	          	|	Matrix    	          	          	|	Matrix    
 1.210E+01	|	          	|	 0.000E+00	 0.000E+00	 0.000E+00	 0.000E+00	 0.000E+00	 0.000E+00	 0.000E+00	 9.549E+00	 9.549E+00	 0.000E+00	 0.000E+00	 0.000E+00	|	 0.000E+00	 0.000E+00	 0.000E+00	|	 0.000E+00
 4.865E+00	|	          	|	 0.000E+00	 1.000E+00	 0.000E+00	 0.000E+00	 0.000E+00	 0.000E+00	 0.000E+00	 0.000E+00	 0.000E+00	 0.000E+00	 0.000E+00	 0.000E+00	|	 0.000E+00	 0.000E+00	 0.000E+00	|	 0.000E+00
 1.267E+00	|	          	|	 0.000E+00	 0.000E+00	 0.000E+00	 0.000E+00	 0.000E+00	 0.000E+00	 0.000E+00	 1.000E+00	 0.000E+00	 0.000E+00	 0.000E+00	 0.000E+00	|	 0.000E+00	 0.000E+00	 0.000E+00	|	 0.000E+00
 4.818E-03	|	          	|	 0.000E+00	 0.000E+00	 1.000E+00	 0.000E+00	 0.000E+00	 0.000E+00	 0.000E+00	 0.000E+00	 0.000E+00	 0.000E+00	 0.000E+00	 0.000E+00	|	 0.000E+00	 0.000E+00	 0.000E+00	|	 0.000E+00
 5.075E-08	|	          	|	 0.000E+00	 0.000E+00	 0.000E+00	 0.000E+00	 0.000E+00	 0.000E+00	 0.000E+00	 0.000E+00	 1.000E+00	 0.000E+00	 0.000E+00	 0.000E+00	|	 0.000E+00	 0.000E+00	 0.000E+00	|	 0.000E+00
 1.174E+03	|	          	|	 0.000E+00	 0.000E+00	 0.000E+00	 0.000E+00	 0.000E+00	 0.000E+00	 0.000E+00	 9.263E+02	 0.000E+00	 0.000E+00	 0.000E+00	 0.000E+00	|	 0.000E+00	 0.000E+00	 0.000E+00	|	 0.000E+00
 1.813E-04	|	          	|	-4.433E+00	-3.217E-02	-1.031E+01	 1.842E-01	 6.099E-02	 9.389E-02	-5.236E-02	-7.181E-02	-1.454E-01	 9.105E-03	 3.502E-03	 4.701E-03	|	-3.904E-02	-8.760E-02	 1.821E-01	|	 4.424E-02
 1.482E-04	|	          	|	 0.000E+00	 0.000E+00	 0.000E+00	 0.000E+00	 0.000E+00	 0.000E+00	 1.000E+00	 0.000E+00	 0.000E+00	 0.000E+00	 0.000E+00	 0.000E+00	|	 0.000E+00	 0.000E+00	 0.000E+00	|	 0.000E+00
 2.650E-01	|	          	|	 1.000E+00	 0.000E+00	 0.000E+00	 0.000E+00	 0.000E+00	 0.000E+00	 0.000E+00	 0.000E+00	 0.000E+00	 0.000E+00	 0.000E+00	 0.000E+00	|	 0.000E+00	 0.000E+00	 0.000E+00	|	 0.000E+00


--------- Azimuth =  12.00 deg (with respect to AzimB1Up =   0.00 deg) ---------
op State  	|	op        	|	A - State 	          	          	          	          	          	          	          	          	          	          	          	|	B - Input 	          	          	|	Bd - Dstrb
Derivativs	|	States    	|	Matrix    	          	          	          	          	          	          	          	          	          	          	          	|	Matrix    	          	          	|	Matrix    
 1.539E-04	|	 2.650E-01	|	 0.000E+00	 0.000E+00	 0.000E+00	 0.000E+00	 0.000E+00	 0.000E+00	 1.000E+00	 0.000E+00	 0.000E+00	 0.000E+00	 0.000E+00	 0.000E+00	|	 0.000E+00	 0.000E+00	 0.000E+00	|	 0.000E+00
 1.267E+00	|	 4.917E+00	|	 0.000E+00	 0.000E+00	 0.000E+00	 0.000E+00	 0.000E+00	 0.000E+00	 0.000E+00	 1.000E+00	 0.000E+00	 0.000E+00	 0.000E+00	 0.000E+00	|	 0.000E+00	 0.000E+00	 0.000E+00	|	 0.000E+00
 2.615E-08	|	 4.818E-03	|	 0.000E+00	 0.000E+00	 0.000E+00	 0.000E+00	 0.000E+00	 0.000E+00	 0.000E+00	 0.000E+00	 1.000E+00	 0.000E+00	 0.000E+00	 0.000E+00	|	 0.000E+00	 0.000E+00	 0.000E+00	|	 0.000E+00
 4.022E-01	|	 3.574E+00	|	 0.000E+00	 0.000E+00	 0.000E+00	 0.000E+00	 0.000E+00	 0.000E+00	 0.000E+00	 0.000E+00	 0.000E+00	 1.000E+00	 0.000E+00	 0.000E+00	|	 0.000E+00	 0.000E+00	 0.000E+00	|	 0.000E+00
-9.139E-02	|	 3.990E+00	|	 0.000E+00	 0.000E+00	 0.000E+00	 0.000E+00	 0.000E+00	 0.000E+00	 0.000E+00	 0.000E+00	 0.000E+00	 0.000E+00	 1.000E+00	 0.000E+00	|	 0.000E+00	 0.000E+00	 0.000E+00	|	 0.000E+00
-3.115E-01	|	 3.442E+00	|	 0.000E+00	 0.000E+00	 0.000E+00	 0.000E+00	 0.000E+00	 0.000E+00	 0.000E+00	 0.000E+00	 0.000E+00	 0.000E+00	 0.000E+00	 1.000E+00	|	 0.000E+00	 0.000E+00	 0.000E+00	|	 0.000E+00
 9.371E-05	|	 1.539E-04	|	-4.433E+00	-3.215E-02	-1.031E+01	 1.831E-01	 5.825E-02	 9.771E-02	-5.235E-02	-7.161E-02	-1.452E-01	 9.070E-03	 3.371E-03	 4.874E-03	|	-5.300E-02	-8.134E-02	 1.898E-01	|	 4.427E-02
-8.723E-06	|	 1.267E+00	|	-1.448E-11	 9.119E-11	 1.726E+02	 1.968E-09	-4.500E-09	 5.875E-09	-4.604E-09	-2.703E+00	 1.237E+00	-1.360E-09	 1.156E-09	 1.335E-09	|	 2.566E-08	-6.436E-08	 1.003E-08	|	-4.084E-09
-1.011E-06	|	 2.615E-08	|	-2.290E-02	-9.081E-05	-1.964E+02	 1.567E-02	 1.509E-02	 1.528E-02	-5.455E-03	 2.603E+00	-1.506E+00	 7.485E-04	 6.804E-04	 4.895E-04	|	 1.623E-01	 1.495E-01	 1.646E-01	|	 6.319E-03
 1.465E-01	|	 4.022E-01	|	 1.840E+01	 6.630E+00	 7.107E+02	-2.165E+01	-6.561E-01	-8.202E-01	-1.429E+01	 1.525E+00	 6.568E+00	-4.510E+00	-2.927E-02	-2.974E-02	|	-5.336E+02	-3.411E+00	-4.943E+00	|	 9.189E+00
-5.086E-01	|	-9.139E-02	|	 5.416E+00	-3.206E+00	 6.688E+02	-6.161E-01	-2.111E+01	-5.210E-01	-7.827E-03	 1.995E+00	 6.809E+00	-3.254E-02	-4.635E+00	-2.121E-02	|	-4.806E+00	-5.451E+02	-5.079E+00	|	 9.705E+00
 3.682E-01	|	-3.115E-01	|	 9.217E+00	-3.298E+00	 6.788E+02	-7.801E-01	-5.299E-01	-2.122E+01	-1.037E+01	 7.025E+00	 1.191E+01	-3.915E-02	-2.653E-02	-4.476E+00	|	-4.578E+00	-4.162E+00	-5.483E+02	|	 9.375E+00

op Output 	|	This colmn	|	C - Output	          	          	          	          	          	          	          	          	          	          	          	|	D - Trnsmt	          	          	|	Dd - DTsmt
Measurmnts	|	is blank  	|	Matrix    	          	          	          	          	          	          	          	          	          	          	          	|	Matrix    	          	          	|	Matrix    
 1.210E+01	|	          	|	 0.000E+00	 0.000E+00	 0.000E+00	 0.000E+00	 0.000E+00	 0.000E+00	 0.000E+00	 9.549E+00	 9.549E+00	 0.000E+00	 0.000E+00	 0.000E+00	|	 0.000E+00	 0.000E+00	 0.000E+00	|	 0.000E+00
 4.917E+00	|	          	|	 0.000E+00	 1.000E+00	 0.000E+00	 0.000E+00	 0.000E+00	 0.000E+00	 0.000E+00	 0.000E+00	 0.000E+00	 0.000E+00	 0.000E+00	 0.000E+00	|	 0.000E+00	 0.000E+00	 0.000E+00	|	 0.000E+00
 1.267E+00	|	          	|	 0.000E+00	 0.000E+00	 0.000E+00	 0.000E+00	 0.000E+00	 0.000E+00	 0.000E+00	 1.000E+00	 0.000E+00	 0.000E+00	 0.000E+00	 0.000E+00	|	 0.000E+00	 0.000E+00	 0.000E+00	|	 0.000E+00
 4.818E-03	|	          	|	 0.000E+00	 0.000E+00	 1.000E+00	 0.000E+00	 0.000E+00	 0.000E+00	 0.000E+00	 0.000E+00	 0.000E+00	 0.000E+00	 0.000E+00	 0.000E+00	|	 0.000E+00	 0.000E+00	 0.000E+00	|	 0.000E+00
 2.615E-08	|	          	|	 0.000E+00	 0.000E+00	 0.000E+00	 0.000E+00	 0.000E+00	 0.000E+00	 0.000E+00	 0.000E+00	 1.000E+00	 0.000E+00	 0.000E+00	 0.000E+00	|	 0.000E+00	 0.000E+00	 0.000E+00	|	 0.000E+00
 1.174E+03	|	          	|	 0.000E+00	 0.000E+00	 0.000E+00	 0.000E+00	 0.000E+00	 0.000E+00	 0.000E+00	 9.263E+02	 0.000E+00	 0.000E+00	 0.000E+00	 0.000E+00	|	 0.000E+00	 0.000E+00	 0.000E+00	|	 0.000E+00
 9.394E-05	|	          	|	-4.433E+00	-3.215E-02	-1.031E+01	 1.831E-01	 5.825E-02	 9.771E-02	-5.235E-02	-7.161E-02	-1.452E-01	 9.070E-03	 3.371E-03	 4.874E-03	|	-5.300E-02	-8.134E-02	 1.898E-01	|	 4.427E-02
 1.539E-04	|	          	|	 0.000E+00	 0.000E+00	 0.000E+00	 0.000E+00	 0.000E+00	 0.000E+00	 1.000E+00	 0.000E+00	 0.000E+00	 0.000E+00	 0.000E+00	 0.000E+00	|	 0.000E+00	 0.000E+00	 0.000E+00	|	 0.000E+00
 2.650E-01	|	          	|	 1.000E+00	 0.000E+00	 0.000E+00	 0.000E+00	 0.000E+00	 0.000E+00	 0.000E+00	 0.000E+00	 0.000E+00	 0.000E+00	 0.000E+00	 0.000E+00	|	 0.000E+00	 0.000E+00	 0.000E+00	|	 0.000E+00


--------- Azimuth =  15.00 deg (with respect to AzimB1Up =   0.00 deg) ---------
op State  	|	op        	|	A - State 	          	          	          	          	          	          	          	          	          	          	          	|	B - Input 	          	          	|	Bd - Dstrb
Derivativs	|	States    	|	Matrix    	          	          	          	          	          	          	          	          	          	          	          	|	Matrix    	          	          	|	Matrix    
 1.559E-04	|	 2.650E-01	|	 0.000E+00	 0.000E+00	 0.000E+00	 0.000E+00	 0.000E+00	 0.000E+00	 1.000E+00	 0.000E+00	 0.000E+00	 0.000E+00	 0.000E+00	 0.000E+00	|	 0.000E+00	 0.000E+00	 0.000E+00	|	 0.000E+00
 1.267E+00	|	 4.969E+00	|	 0.000E+00	 0.000E+00	 0.000E+00	 0.000E+00	 0.000E+00	 0.000E+00	 0.000E+00	 1.000E+00	 0.000E+00	 0.000E+00	 0.000E+00	 0.000E+00	|	 0.000E+00	 0.000E+00	 0.000E+00	|	 0.000E+00
-2.232E-08	|	 4.818E-03	|	 0.000E+00	 0.000E+00	 0.000E+00	 0.000E+00	 0.000E+00	 0.000E+00	 0.000E+00	 0.000E+00	 1.000E+00	 0.000E+00	 0.000E+00	 0.000E+00	|	 0.000E+00	 0.000E+00	 0.000E+00	|	 0.000E+00