
This linearized model file was generated by FAST (v7.02.00d-bjj, 20-Feb-2013) on 12-Jul-2018 at 22:07:14.
The aerodynamic calculations were made by AeroDyn (v13.00.02a-bjj, 20-Feb-2013).

 NREL 5.0 MW Baseline Wind Turbine for Use in Offshore Analysis.


Some Useful Information:

   Type of steady state solution found                Trimmed collective blade pitch (TrimCase = 3)
   Azimuth-average rotor speed, RotSpeed      (rad/s)    1.26711E+00
   Period of steady state solution              (sec)    4.95868E+00
   Iterations needed to find steady state solution      75
   Displacement 2-norm of steady state solution (rad)    7.77657E-06
   Velocity 2-norm of steady state solution   (rad/s)    9.65822E-06
   Number of equally-speced azimuth steps, NAzimStep   120
   Order of linearized model, MdlOrder                   1
   Number of active (enabled) DOFs                       6 (12 states)
   Number of control inputs, NInputs                     3
   Number of input wind disturbances, NDisturbs          1
   Number of output measurements                         9


Order of States in Linearized State Matrices:

   Row/column  1 = 1st tower fore-aft bending mode DOF (internal DOF index = DOF_TFA1)
   Row/column  2 = Variable speed generator DOF (internal DOF index = DOF_GeAz)
   Row/column  3 = Drivetrain rotational-flexibility DOF (internal DOF index = DOF_DrTr)
   Row/column  4 = 1st flapwise bending-mode DOF of blade 1 (internal DOF index = DOF_BF(1,1))
   Row/column  5 = 1st flapwise bending-mode DOF of blade 2 (internal DOF index = DOF_BF(2,1))
   Row/column  6 = 1st flapwise bending-mode DOF of blade 3 (internal DOF index = DOF_BF(3,1))
   Row/column  7 to 12 = First derivatives of row/column  1 to  6.


Order of Control Inputs in Linearized State Matrices:

   Column 1 = individual pitch of blade 1       (rad)    1.84420E-01 op
   Column 2 = individual pitch of blade 2       (rad)    1.84420E-01 op
   Column 3 = individual pitch of blade 3       (rad)    1.84420E-01 op


Order of Input Wind Disturbances in Linearized State Matrices:

   Column 1 = horizontal hub-height wind speed  (m/s) : See selected wind file for op


Order of Output Measurements in Linearized State Matrices:

   Row   1 = RotSpeed   (rpm)     
   Row   2 = Q_GeAz     (rad)     
   Row   3 = QD_GeAz    (rad/s)   
   Row   4 = Q_DrTr     (rad)     
   Row   5 = QD_DrTr    (rad/s)   
   Row   6 = GenSpeed   (rpm)     
   Row   7 = QD2_TFA1   (m/s^2)   
   Row   8 = QD_TFA1    (m/s)     
   Row   9 = Q_TFA1     (m)       


Linearized State Matrices:

--------- Azimuth =   0.00 deg (with respect to AzimB1Up =   0.00 deg) ---------
op State  	|	op        	|	A - State 	          	          	          	          	          	          	          	          	          	          	          	|	B - Input 	          	          	|	Bd - Dstrb
Derivativs	|	States    	|	Matrix    	          	          	          	          	          	          	          	          	          	          	          	|	Matrix    	          	          	|	Matrix    
 1.476E-04	|	 2.176E-01	|	 0.000E+00	 0.000E+00	 0.000E+00	 0.000E+00	 0.000E+00	 0.000E+00	 1.000E+00	 0.000E+00	 0.000E+00	 0.000E+00	 0.000E+00	 0.000E+00	|	 0.000E+00	 0.000E+00	 0.000E+00	|	 0.000E+00
 1.267E+00	|	 4.708E+00	|	 0.000E+00	 0.000E+00	 0.000E+00	 0.000E+00	 0.000E+00	 0.000E+00	 0.000E+00	 1.000E+00	 0.000E+00	 0.000E+00	 0.000E+00	 0.000E+00	|	 0.000E+00	 0.000E+00	 0.000E+00	|	 0.000E+00
-5.197E-07	|	 4.818E-03	|	 0.000E+00	 0.000E+00	 0.000E+00	 0.000E+00	 0.000E+00	 0.000E+00	 0.000E+00	 0.000E+00	 1.000E+00	 0.000E+00	 0.000E+00	 0.000E+00	|	 0.000E+00	 0.000E+00	 0.000E+00	|	 0.000E+00
 3.889E-01	|	 2.635E+00	|	 0.000E+00	 0.000E+00	 0.000E+00	 0.000E+00	 0.000E+00	 0.000E+00	 0.000E+00	 0.000E+00	 0.000E+00	 1.000E+00	 0.000E+00	 0.000E+00	|	 0.000E+00	 0.000E+00	 0.000E+00	|	 0.000E+00
-1.947E-02	|	 3.129E+00	|	 0.000E+00	 0.000E+00	 0.000E+00	 0.000E+00	 0.000E+00	 0.000E+00	 0.000E+00	 0.000E+00	 0.000E+00	 0.000E+00	 1.000E+00	 0.000E+00	|	 0.000E+00	 0.000E+00	 0.000E+00	|	 0.000E+00
-3.711E-01	|	 2.602E+00	|	 0.000E+00	 0.000E+00	 0.000E+00	 0.000E+00	 0.000E+00	 0.000E+00	 0.000E+00	 0.000E+00	 0.000E+00	 0.000E+00	 0.000E+00	 1.000E+00	|	 0.000E+00	 0.000E+00	 0.000E+00	|	 0.000E+00
 6.692E-04	|	 1.476E-04	|	-4.429E+00	-3.354E-02	-1.283E+01	 1.866E-01	 7.031E-02	 8.582E-02	-5.640E-02	-9.250E-02	-1.842E-01	 9.579E-03	 4.095E-03	 4.769E-03	|	-1.055E-01	-1.463E-01	 1.434E-01	|	 4.732E-02
-5.483E-06	|	 1.267E+00	|	-5.063E-09	-6.839E-10	 1.726E+02	 6.226E-09	-4.562E-09	-7.935E-09	-3.473E-09	-2.702E+00	 1.237E+00	 1.198E-09	 5.830E-10	 5.930E-10	|	-1.552E-07	-2.406E-07	 1.308E-07	|	 1.320E-08
 2.796E-06	|	-5.197E-07	|	-2.845E-02	-1.626E-04	-1.972E+02	 1.994E-02	 1.923E-02	 1.932E-02	-3.569E-03	 2.634E+00	-1.481E+00	 1.392E-03	 1.423E-03	 1.120E-03	|	 1.879E-01	 1.749E-01	 1.915E-01	|	 4.161E-03
 2.374E-01	|	 3.889E-01	|	 1.878E+01	 6.834E+00	 9.037E+02	-2.191E+01	-9.452E-01	-1.011E+00	-1.666E+01	-3.584E+01	-2.941E+01	-4.910E+00	-6.404E-02	-5.627E-02	|	-5.765E+02	-5.268E+00	-7.018E+00	|	 9.098E+00
-5.339E-01	|	-1.947E-02	|	 6.395E+00	-2.360E+00	 8.576E+02	-9.112E-01	-2.124E+01	-7.679E-01	-9.771E-01	-3.878E+01	-3.262E+01	-6.049E-02	-5.044E+00	-4.530E-02	|	-6.423E+00	-5.874E+02	-6.843E+00	|	 9.505E+00
 2.994E-01	|	-3.711E-01	|	 8.117E+00	-4.311E+00	 8.604E+02	-9.683E-01	-7.680E-01	-2.130E+01	-8.996E+00	-3.087E+01	-2.467E+01	-6.329E-02	-5.598E-02	-4.873E+00	|	-6.411E+00	-5.892E+00	-5.865E+02	|	 9.372E+00

op Output 	|	This colmn	|	C - Output	          	          	          	          	          	          	          	          	          	          	          	|	D - Trnsmt	          	          	|	Dd - DTsmt
Measurmnts	|	is blank  	|	Matrix    	          	          	          	          	          	          	          	          	          	          	          	|	Matrix    	          	          	|	Matrix    
 1.210E+01	|	          	|	 0.000E+00	 0.000E+00	 0.000E+00	 0.000E+00	 0.000E+00	 0.000E+00	 0.000E+00	 9.549E+00	 9.549E+00	 0.000E+00	 0.000E+00	 0.000E+00	|	 0.000E+00	 0.000E+00	 0.000E+00	|	 0.000E+00
 4.708E+00	|	          	|	 0.000E+00	 1.000E+00	 0.000E+00	 0.000E+00	 0.000E+00	 0.000E+00	 0.000E+00	 0.000E+00	 0.000E+00	 0.000E+00	 0.000E+00	 0.000E+00	|	 0.000E+00	 0.000E+00	 0.000E+00	|	 0.000E+00
 1.267E+00	|	          	|	 0.000E+00	 0.000E+00	 0.000E+00	 0.000E+00	 0.000E+00	 0.000E+00	 0.000E+00	 1.000E+00	 0.000E+00	 0.000E+00	 0.000E+00	 0.000E+00	|	 0.000E+00	 0.000E+00	 0.000E+00	|	 0.000E+00
 4.818E-03	|	          	|	 0.000E+00	 0.000E+00	 1.000E+00	 0.000E+00	 0.000E+00	 0.000E+00	 0.000E+00	 0.000E+00	 0.000E+00	 0.000E+00	 0.000E+00	 0.000E+00	|	 0.000E+00	 0.000E+00	 0.000E+00	|	 0.000E+00
-5.197E-07	|	          	|	 0.000E+00	 0.000E+00	 0.000E+00	 0.000E+00	 0.000E+00	 0.000E+00	 0.000E+00	 0.000E+00	 1.000E+00	 0.000E+00	 0.000E+00	 0.000E+00	|	 0.000E+00	 0.000E+00	 0.000E+00	|	 0.000E+00
 1.174E+03	|	          	|	 0.000E+00	 0.000E+00	 0.000E+00	 0.000E+00	 0.000E+00	 0.000E+00	 0.000E+00	 9.263E+02	 0.000E+00	 0.000E+00	 0.000E+00	 0.000E+00	|	 0.000E+00	 0.000E+00	 0.000E+00	|	 0.000E+00
 6.692E-04	|	          	|	-4.429E+00	-3.354E-02	-1.283E+01	 1.866E-01	 7.031E-02	 8.582E-02	-5.640E-02	-9.250E-02	-1.842E-01	 9.579E-03	 4.095E-03	 4.769E-03	|	-1.055E-01	-1.463E-01	 1.434E-01	|	 4.732E-02
 1.476E-04	|	          	|	 0.000E+00	 0.000E+00	 0.000E+00	 0.000E+00	 0.000E+00	 0.000E+00	 1.000E+00	 0.000E+00	 0.000E+00	 0.000E+00	 0.000E+00	 0.000E+00	|	 0.000E+00	 0.000E+00	 0.000E+00	|	 0.000E+00
 2.176E-01	|	          	|	 1.000E+00	 0.000E+00	 0.000E+00	 0.000E+00	 0.000E+00	 0.000E+00	 0.000E+00	 0.000E+00	 0.000E+00	 0.000E+00	 0.000E+00	 0.000E+00	|	 0.000E+00	 0.000E+00	 0.000E+00	|	 0.000E+00


--------- Azimuth =   3.00 deg (with respect to AzimB1Up =   0.00 deg) ---------
op State  	|	op        	|	A - State 	          	          	          	          	          	          	          	          	          	          	          	|	B - Input 	          	          	|	Bd - Dstrb
Derivativs	|	States    	|	Matrix    	          	          	          	          	          	          	          	          	          	          	          	|	Matrix    	          	          	|	Matrix    
 1.732E-04	|	 2.177E-01	|	 0.000E+00	 0.000E+00	 0.000E+00	 0.000E+00	 0.000E+00	 0.000E+00	 1.000E+00	 0.000E+00	 0.000E+00	 0.000E+00	 0.000E+00	 0.000E+00	|	 0.000E+00	 0.000E+00	 0.000E+00	|	 0.000E+00
 1.267E+00	|	 4.760E+00	|	 0.000E+00	 0.000E+00	 0.000E+00	 0.000E+00	 0.000E+00	 0.000E+00	 0.000E+00	 1.000E+00	 0.000E+00	 0.000E+00	 0.000E+00	 0.000E+00	|	 0.000E+00	 0.000E+00	 0.000E+00	|	 0.000E+00
-4.120E-07	|	 4.818E-03	|	 0.000E+00	 0.000E+00	 0.000E+00	 0.000E+00	 0.000E+00	 0.000E+00	 0.000E+00	 0.000E+00	 1.000E+00	 0.000E+00	 0.000E+00	 0.000E+00	|	 0.000E+00	 0.000E+00	 0.000E+00	|	 0.000E+00
 3.982E-01	|	 2.651E+00	|	 0.000E+00	 0.000E+00	 0.000E+00	 0.000E+00	 0.000E+00	 0.000E+00	 0.000E+00	 0.000E+00	 0.000E+00	 1.000E+00	 0.000E+00	 0.000E+00	|	 0.000E+00	 0.000E+00	 0.000E+00	|	 0.000E+00
-4.151E-02	|	 3.128E+00	|	 0.000E+00	 0.000E+00	 0.000E+00	 0.000E+00	 0.000E+00	 0.000E+00	 0.000E+00	 0.000E+00	 0.000E+00	 0.000E+00	 1.000E+00	 0.000E+00	|	 0.000E+00	 0.000E+00	 0.000E+00	|	 0.000E+00
-3.582E-01	|	 2.587E+00	|	 0.000E+00	 0.000E+00	 0.000E+00	 0.000E+00	 0.000E+00	 0.000E+00	 0.000E+00	 0.000E+00	 0.000E+00	 0.000E+00	 0.000E+00	 1.000E+00	|	 0.000E+00	 0.000E+00	 0.000E+00	|	 0.000E+00
 5.639E-04	|	 1.732E-04	|	-4.429E+00	-3.365E-02	-1.283E+01	 1.861E-01	 6.724E-02	 8.945E-02	-5.636E-02	-9.231E-02	-1.840E-01	 9.554E-03	 3.952E-03	 4.948E-03	|	-1.203E-01	-1.353E-01	 1.510E-01	|	 4.717E-02
-8.604E-06	|	 1.267E+00	|	 1.781E-08	-4.325E-09	 1.726E+02	-2.442E-09	-3.882E-09	-1.431E-08	-8.910E-09	-2.702E+00	 1.237E+00	 1.076E-09	 7.175E-10	-9.766E-10	|	-1.329E-07	 6.696E-08	-1.236E-07	|	 9.013E-09
 1.860E-06	|	-4.120E-07	|	-2.846E-02	-1.747E-04	-1.972E+02	 1.993E-02	 1.921E-02	 1.934E-02	-3.560E-03	 2.635E+00	-1.481E+00	 1.401E-03	 1.415E-03	 1.121E-03	|	 1.875E-01	 1.750E-01	 1.921E-01	|	 4.141E-03
 2.114E-01	|	 3.982E-01	|	 1.871E+01	 6.873E+00	 9.035E+02	-2.190E+01	-9.313E-01	-1.025E+00	-1.641E+01	-3.608E+01	-2.966E+01	-4.917E+00	-6.338E-02	-5.724E-02	|	-5.764E+02	-5.311E+00	-7.061E+00	|	 9.102E+00
-5.324E-01	|	-4.151E-02	|	 6.085E+00	-2.688E+00	 8.563E+02	-8.965E-01	-2.123E+01	-7.664E-01	-7.478E-01	-3.863E+01	-3.248E+01	-5.957E-02	-5.042E+00	-4.469E-02	|	-6.425E+00	-5.877E+02	-6.882E+00	|	 9.516E+00
 3.250E-01	|	-3.582E-01	|	 8.494E+00	-4.019E+00	 8.618E+02	-9.834E-01	-7.686E-01	-2.131E+01	-9.469E+00	-3.078E+01	-2.458E+01	-6.432E-02	-5.573E-02	-4.869E+00	|	-6.352E+00	-5.897E+00	-5.862E+02	|	 9.360E+00

op Output 	|	This colmn	|	C - Output	          	          	          	          	          	          	          	          	          	          	          	|	D - Trnsmt	          	          	|	Dd - DTsmt
Measurmnts	|	is blank  	|	Matrix    	          	          	          	          	          	          	          	          	          	          	          	|	Matrix    	          	          	|	Matrix    
 1.210E+01	|	          	|	 0.000E+00	 0.000E+00	 0.000E+00	 0.000E+00	 0.000E+00	 0.000E+00	 0.000E+00	 9.549E+00	 9.549E+00	 0.000E+00	 0.000E+00	 0.000E+00	|	 0.000E+00	 0.000E+00	 0.000E+00	|	 0.000E+00
 4.760E+00	|	          	|	 0.000E+00	 1.000E+00	 0.000E+00	 0.000E+00	 0.000E+00	 0.000E+00	 0.000E+00	 0.000E+00	 0.000E+00	 0.000E+00	 0.000E+00	 0.000E+00	|	 0.000E+00	 0.000E+00	 0.000E+00	|	 0.000E+00
 1.267E+00	|	          	|	 0.000E+00	 0.000E+00	 0.000E+00	 0.000E+00	 0.000E+00	 0.000E+00	 0.000E+00	 1.000E+00	 0.000E+00	 0.000E+00	 0.000E+00	 0.000E+00	|	 0.000E+00	 0.000E+00	 0.000E+00	|	 0.000E+00
 4.818E-03	|	          	|	 0.000E+00	 0.000E+00	 1.000E+00	 0.000E+00	 0.000E+00	 0.000E+00	 0.000E+00	 0.000E+00	 0.000E+00	 0.000E+00	 0.000E+00	 0.000E+00	|	 0.000E+00	 0.000E+00	 0.000E+00	|	 0.000E+00
-4.120E-07	|	          	|	 0.000E+00	 0.000E+00	 0.000E+00	 0.000E+00	 0.000E+00	 0.000E+00	 0.000E+00	 0.000E+00	 1.000E+00	 0.000E+00	 0.000E+00	 0.000E+00	|	 0.000E+00	 0.000E+00	 0.000E+00	|	 0.000E+00
 1.174E+03	|	          	|	 0.000E+00	 0.000E+00	 0.000E+00	 0.000E+00	 0.000E+00	 0.000E+00	 0.000E+00	 9.263E+02	 0.000E+00	 0.000E+00	 0.000E+00	 0.000E+00	|	 0.000E+00	 0.000E+00	 0.000E+00	|	 0.000E+00
 5.643E-04	|	          	|	-4.429E+00	-3.365E-02	-1.283E+01	 1.861E-01	 6.724E-02	 8.945E-02	-5.636E-02	-9.231E-02	-1.840E-01	 9.554E-03	 3.952E-03	 4.948E-03	|	-1.203E-01	-1.353E-01	 1.510E-01	|	 4.717E-02
 1.732E-04	|	          	|	 0.000E+00	 0.000E+00	 0.000E+00	 0.000E+00	 0.000E+00	 0.000E+00	 1.000E+00	 0.000E+00	 0.000E+00	 0.000E+00	 0.000E+00	 0.000E+00	|	 0.000E+00	 0.000E+00	 0.000E+00	|	 0.000E+00
 2.177E-01	|	          	|	 1.000E+00	 0.000E+00	 0.000E+00	 0.000E+00	 0.000E+00	 0.000E+00	 0.000E+00	 0.000E+00	 0.000E+00	 0.000E+00	 0.000E+00	 0.000E+00	|	 0.000E+00	 0.000E+00	 0.000E+00	|	 0.000E+00


--------- Azimuth =   6.00 deg (with respect to AzimB1Up =   0.00 deg) ---------
op State  	|	op        	|	A - State 	          	          	          	          	          	          	          	          	          	          	          	|	B - Input 	          	          	|	Bd - Dstrb
Derivativs	|	States    	|	Matrix    	          	          	          	          	          	          	          	          	          	          	          	|	Matrix    	          	          	|	Matrix    
 1.942E-04	|	 2.177E-01	|	 0.000E+00	 0.000E+00	 0.000E+00	 0.000E+00	 0.000E+00	 0.000E+00	 1.000E+00	 0.000E+00	 0.000E+00	 0.000E+00	 0.000E+00	 0.000E+00	|	 0.000E+00	 0.000E+00	 0.000E+00	|	 0.000E+00
 1.267E+00	|	 4.812E+00	|	 0.000E+00	 0.000E+00	 0.000E+00	 0.000E+00	 0.000E+00	 0.000E+00	 0.000E+00	 1.000E+00	 0.000E+00	 0.000E+00	 0.000E+00	 0.000E+00	|	 0.000E+00	 0.000E+00	 0.000E+00	|	 0.000E+00
-3.571E-07	|	 4.818E-03	|	 0.000E+00	 0.000E+00	 0.000E+00	 0.000E+00	 0.000E+00	 0.000E+00	 0.000E+00	 0.000E+00	 1.000E+00	 0.000E+00	 0.000E+00	 0.000E+00	|	 0.000E+00	 0.000E+00	 0.000E+00	|	 0.000E+00
 4.064E-01	|	 2.668E+00	|	 0.000E+00	 0.000E+00	 0.000E+00	 0.000E+00	 0.000E+00	 0.000E+00	 0.000E+00	 0.000E+00	 0.000E+00	 1.000E+00	 0.000E+00	 0.000E+00	|	 0.000E+00	 0.000E+00	 0.000E+00	|	 0.000E+00
-6.346E-02	|	 3.126E+00	|	 0.000E+00	 0.000E+00	 0.000E+00	 0.000E+00	 0.000E+00	 0.000E+00	 0.000E+00	 0.000E+00	 0.000E+00	 0.000E+00	 1.000E+00	 0.000E+00	|	 0.000E+00	 0.000E+00	 0.000E+00	|	 0.000E+00
-3.443E-01	|	 2.573E+00	|	 0.000E+00	 0.000E+00	 0.000E+00	 0.000E+00	 0.000E+00	 0.000E+00	 0.000E+00	 0.000E+00	 0.000E+00	 0.000E+00	 0.000E+00	 1.000E+00	|	 0.000E+00	 0.000E+00	 0.000E+00	|	 0.000E+00
 4.516E-04	|	 1.942E-04	|	-4.429E+00	-3.366E-02	-1.283E+01	 1.853E-01	 6.431E-02	 9.315E-02	-5.626E-02	-9.205E-02	-1.837E-01	 9.524E-03	 3.817E-03	 5.118E-03	|	-1.349E-01	-1.248E-01	 1.581E-01	|	 4.703E-02
-1.132E-05	|	 1.267E+00	|	-4.179E-09	 2.801E-09	 1.726E+02	 5.601E-09	-3.129E-09	-1.066E-09	-1.200E-08	-2.702E+00	 1.237E+00	-1.236E-09	-5.282E-10	 2.442E-10	|	-1.746E-08	-3.387E-08	 2.553E-08	|	-5.775E-10
 9.753E-07	|	-3.571E-07	|	-2.846E-02	-1.641E-04	-1.972E+02	 1.993E-02	 1.919E-02	 1.936E-02	-3.546E-03	 2.635E+00	-1.480E+00	 1.411E-03	 1.406E-03	 1.120E-03	|	 1.872E-01	 1.751E-01	 1.927E-01	|	 4.126E-03
 1.850E-01	|	 4.064E-01	|	 1.863E+01	 6.893E+00	 9.033E+02	-2.190E+01	-9.178E-01	-1.039E+00	-1.615E+01	-3.632E+01	-2.990E+01	-4.922E+00	-6.271E-02	-5.806E-02	|	-5.764E+02	-5.359E+00	-7.109E+00	|	 9.107E+00
-5.298E-01	|	-6.346E-02	|	 5.787E+00	-3.010E+00	 8.551E+02	-8.823E-01	-2.122E+01	-7.647E-01	-5.414E-01	-3.847E+01	-3.232E+01	-5.978E-02	-5.041E+00	-4.510E-02	|	-6.406E+00	-5.880E+02	-6.909E+00	|	 9.525E+00
 3.497E-01	|	-3.443E-01	|	 8.878E+00	-3.717E+00	 8.632E+02	-9.984E-01	-7.690E-01	-2.133E+01	-9.940E+00	-3.071E+01	-2.450E+01	-6.537E-02	-5.551E-02	-4.864E+00	|	-6.298E+00	-5.900E+00	-5.859E+02	|	 9.347E+00

op Output 	|	This colmn	|	C - Output	          	          	          	          	          	          	          	          	          	          	          	|	D - Trnsmt	          	          	|	Dd - DTsmt
Measurmnts	|	is blank  	|	Matrix    	          	          	          	          	          	          	          	          	          	          	          	|	Matrix    	          	          	|	Matrix    
 1.210E+01	|	          	|	 0.000E+00	 0.000E+00	 0.000E+00	 0.000E+00	 0.000E+00	 0.000E+00	 0.000E+00	 9.549E+00	 9.549E+00	 0.000E+00	 0.000E+00	 0.000E+00	|	 0.000E+00	 0.000E+00	 0.000E+00	|	 0.000E+00
 4.812E+00	|	          	|	 0.000E+00	 1.000E+00	 0.000E+00	 0.000E+00	 0.000E+00	 0.000E+00	 0.000E+00	 0.000E+00	 0.000E+00	 0.000E+00	 0.000E+00	 0.000E+00	|	 0.000E+00	 0.000E+00	 0.000E+00	|	 0.000E+00
 1.267E+00	|	          	|	 0.000E+00	 0.000E+00	 0.000E+00	 0.000E+00	 0.000E+00	 0.000E+00	 0.000E+00	 1.000E+00	 0.000E+00	 0.000E+00	 0.000E+00	 0.000E+00	|	 0.000E+00	 0.000E+00	 0.000E+00	|	 0.000E+00
 4.818E-03	|	          	|	 0.000E+00	 0.000E+00	 1.000E+00	 0.000E+00	 0.000E+00	 0.000E+00	 0.000E+00	 0.000E+00	 0.000E+00	 0.000E+00	 0.000E+00	 0.000E+00	|	 0.000E+00	 0.000E+00	 0.000E+00	|	 0.000E+00
-3.571E-07	|	          	|	 0.000E+00	 0.000E+00	 0.000E+00	 0.000E+00	 0.000E+00	 0.000E+00	 0.000E+00	 0.000E+00	 1.000E+00	 0.000E+00	 0.000E+00	 0.000E+00	|	 0.000E+00	 0.000E+00	 0.000E+00	|	 0.000E+00
 1.174E+03	|	          	|	 0.000E+00	 0.000E+00	 0.000E+00	 0.000E+00	 0.000E+00	 0.000E+00	 0.000E+00	 9.263E+02	 0.000E+00	 0.000E+00	 0.000E+00	 0.000E+00	|	 0.000E+00	 0.000E+00	 0.000E+00	|	 0.000E+00
 4.518E-04	|	          	|	-4.429E+00	-3.366E-02	-1.283E+01	 1.853E-01	 6.431E-02	 9.315E-02	-5.626E-02	-9.205E-02	-1.837E-01	 9.524E-03	 3.817E-03	 5.118E-03	|	-1.349E-01	-1.248E-01	 1.581E-01	|	 4.703E-02
 1.942E-04	|	          	|	 0.000E+00	 0.000E+00	 0.000E+00	 0.000E+00	 0.000E+00	 0.000E+00	 1.000E+00	 0.000E+00	 0.000E+00	 0.000E+00	 0.000E+00	 0.000E+00	|	 0.000E+00	 0.000E+00	 0.000E+00	|	 0.000E+00
 2.177E-01	|	          	|	 1.000E+00	 0.000E+00	 0.000E+00	 0.000E+00	 0.000E+00	 0.000E+00	 0.000E+00	 0.000E+00	 0.000E+00	 0.000E+00	 0.000E+00	 0.000E+00	|	 0.000E+00	 0.000E+00	 0.000E+00	|	 0.000E+00


--------- Azimuth =   9.00 deg (with respect to AzimB1Up =   0.00 deg) ---------
op State  	|	op        	|	A - State 	          	          	          	          	          	          	          	          	          	          	          	|	B - Input 	          	          	|	Bd - Dstrb
Derivativs	|	States    	|	Matrix    	          	          	          	          	          	          	          	          	          	          	          	|	Matrix    	          	          	|	Matrix    
 2.103E-04	|	 2.177E-01	|	 0.000E+00	 0.000E+00	 0.000E+00	 0.000E+00	 0.000E+00	 0.000E+00	 1.000E+00	 0.000E+00	 0.000E+00	 0.000E+00	 0.000E+00	 0.000E+00	|	 0.000E+00	 0.000E+00	 0.000E+00	|	 0.000E+00
 1.267E+00	|	 4.865E+00	|	 0.000E+00	 0.000E+00	 0.000E+00	 0.000E+00	 0.000E+00	 0.000E+00	 0.000E+00	 1.000E+00	 0.000E+00	 0.000E+00	 0.000E+00	 0.000E+00	|	 0.000E+00	 0.000E+00	 0.000E+00	|	 0.000E+00
-3.336E-07	|	 4.818E-03	|	 0.000E+00	 0.000E+00	 0.000E+00	 0.000E+00	 0.000E+00	 0.000E+00	 0.000E+00	 0.000E+00	 1.000E+00	 0.000E+00	 0.000E+00	 0.000E+00	|	 0.000E+00	 0.000E+00	 0.000E+00	|	 0.000E+00
 4.135E-01	|	 2.685E+00	|	 0.000E+00	 0.000E+00	 0.000E+00	 0.000E+00	 0.000E+00	 0.000E+00	 0.000E+00	 0.000E+00	 0.000E+00	 1.000E+00	 0.000E+00	 0.000E+00	|	 0.000E+00	 0.000E+00	 0.000E+00	|	 0.000E+00
-8.527E-02	|	 3.123E+00	|	 0.000E+00	 0.000E+00	 0.000E+00	 0.000E+00	 0.000E+00	 0.000E+00	 0.000E+00	 0.000E+00	 0.000E+00	 0.000E+00	 1.000E+00	 0.000E+00	|	 0.000E+00	 0.000E+00	 0.000E+00	|	 0.000E+00
-3.294E-01	|	 2.559E+00	|	 0.000E+00	 0.000E+00	 0.000E+00	 0.000E+00	 0.000E+00	 0.000E+00	 0.000E+00	 0.000E+00	 0.000E+00	 0.000E+00	 0.000E+00	 1.000E+00	|	 0.000E+00	 0.000E+00	 0.000E+00	|	 0.000E+00
 3.271E-04	|	 2.103E-04	|	-4.429E+00	-3.375E-02	-1.283E+01	 1.843E-01	 6.150E-02	 9.690E-02	-5.619E-02	-9.155E-02	-1.832E-01	 9.482E-03	 3.688E-03	 5.296E-03	|	-1.510E-01	-1.146E-01	 1.648E-01	|	 4.697E-02
-1.364E-05	|	 1.267E+00	|	 9.895E-09	-1.342E-09	 1.726E+02	-4.171E-09	-8.486E-09	-7.076E-09	-9.699E-10	-2.702E+00	 1.237E+00	-2.541E-10	-1.031E-09	-6.478E-10	|	-5.862E-08	 1.093E-07	-7.790E-08	|	 4.729E-09
 3.808E-08	|	-3.336E-07	|	-2.846E-02	-1.597E-04	-1.972E+02	 1.993E-02	 1.917E-02	 1.938E-02	-3.536E-03	 2.635E+00	-1.480E+00	 1.420E-03	 1.397E-03	 1.121E-03	|	 1.866E-01	 1.752E-01	 1.933E-01	|	 4.121E-03
 1.582E-01	|	 4.135E-01	|	 1.852E+01	 6.896E+00	 9.030E+02	-2.189E+01	-9.046E-01	-1.053E+00	-1.587E+01	-3.656E+01	-3.014E+01	-4.928E+00	-6.188E-02	-5.877E-02	|	-5.765E+02	-5.397E+00	-7.144E+00	|	 9.112E+00
-5.258E-01	|	-8.527E-02	|	 5.504E+00	-3.324E+00	 8.539E+02	-8.686E-01	-2.121E+01	-7.628E-01	-3.580E-01	-3.830E+01	-3.216E+01	-5.936E-02	-5.040E+00	-4.493E-02	|	-6.397E+00	-5.882E+02	-6.926E+00	|	 9.534E+00
 3.736E-01	|	-3.294E-01	|	 9.269E+00	-3.404E+00	 8.647E+02	-1.013E+00	-7.692E-01	-2.134E+01	-1.041E+01	-3.065E+01	-2.443E+01	-6.613E-02	-5.498E-02	-4.860E+00	|	-6.231E+00	-5.900E+00	-5.856E+02	|	 9.335E+00

op Output 	|	This colmn	|	C - Output	          	          	          	          	          	          	          	          	          	          	          	|	D - Trnsmt	          	          	|	Dd - DTsmt
Measurmnts	|	is blank  	|	Matrix    	          	          	          	          	          	          	          	          	          	          	          	|	Matrix    	          	          	|	Matrix    
 1.210E+01	|	          	|	 0.000E+00	 0.000E+00	 0.000E+00	 0.000E+00	 0.000E+00	 0.000E+00	 0.000E+00	 9.549E+00	 9.549E+00	 0.000E+00	 0.000E+00	 0.000E+00	|	 0.000E+00	 0.000E+00	 0.000E+00	|	 0.000E+00
 4.865E+00	|	          	|	 0.000E+00	 1.000E+00	 0.000E+00	 0.000E+00	 0.000E+00	 0.000E+00	 0.000E+00	 0.000E+00	 0.000E+00	 0.000E+00	 0.000E+00	 0.000E+00	|	 0.000E+00	 0.000E+00	 0.000E+00	|	 0.000E+00
 1.267E+00	|	          	|	 0.000E+00	 0.000E+00	 0.000E+00	 0.000E+00	 0.000E+00	 0.000E+00	 0.000E+00	 1.000E+00	 0.000E+00	 0.000E+00	 0.000E+00	 0.000E+00	|	 0.000E+00	 0.000E+00	 0.000E+00	|	 0.000E+00
 4.818E-03	|	          	|	 0.000E+00	 0.000E+00	 1.000E+00	 0.000E+00	 0.000E+00	 0.000E+00	 0.000E+00	 0.000E+00	 0.000E+00	 0.000E+00	 0.000E+00	 0.000E+00	|	 0.000E+00	 0.000E+00	 0.000E+00	|	 0.000E+00
-3.336E-07	|	          	|	 0.000E+00	 0.000E+00	 0.000E+00	 0.000E+00	 0.000E+00	 0.000E+00	 0.000E+00	 0.000E+00	 1.000E+00	 0.000E+00	 0.000E+00	 0.000E+00	|	 0.000E+00	 0.000E+00	 0.000E+00	|	 0.000E+00
 1.174E+03	|	          	|	 0.000E+00	 0.000E+00	 0.000E+00	 0.000E+00	 0.000E+00	 0.000E+00	 0.000E+00	 9.263E+02	 0.000E+00	 0.000E+00	 0.000E+00	 0.000E+00	|	 0.000E+00	 0.000E+00	 0.000E+00	|	 0.000E+00
 3.277E-04	|	          	|	-4.429E+00	-3.375E-02	-1.283E+01	 1.843E-01	 6.150E-02	 9.690E-02	-5.619E-02	-9.155E-02	-1.832E-01	 9.482E-03	 3.688E-03	 5.296E-03	|	-1.510E-01	-1.146E-01	 1.648E-01	|	 4.697E-02
 2.103E-04	|	          	|	 0.000E+00	 0.000E+00	 0.000E+00	 0.000E+00	 0.000E+00	 0.000E+00	 1.000E+00	 0.000E+00	 0.000E+00	 0.000E+00	 0.000E+00	 0.000E+00	|	 0.000E+00	 0.000E+00	 0.000E+00	|	 0.000E+00
 2.177E-01	|	          	|	 1.000E+00	 0.000E+00	 0.000E+00	 0.000E+00	 0.000E+00	 0.000E+00	 0.000E+00	 0.000E+00	 0.000E+00	 0.000E+00	 0.000E+00	 0.000E+00	|	 0.000E+00	 0.000E+00	 0.000E+00	|	 0.000E+00


--------- Azimuth =  12.00 deg (with respect to AzimB1Up =   0.00 deg) ---------
op State  	|	op        	|	A - State 	          	          	          	          	          	          	          	          	          	          	          	|	B - Input 	          	          	|	Bd - Dstrb
Derivativs	|	States    	|	Matrix    	          	          	          	          	          	          	          	          	          	          	          	|	Matrix    	          	          	|	Matrix    
 2.212E-04	|	 2.177E-01	|	 0.000E+00	 0.000E+00	 0.000E+00	 0.000E+00	 0.000E+00	 0.000E+00	 1.000E+00	 0.000E+00	 0.000E+00	 0.000E+00	 0.000E+00	 0.000E+00	|	 0.000E+00	 0.000E+00	 0.000E+00	|	 0.000E+00
 1.267E+00	|	 4.917E+00	|	 0.000E+00	 0.000E+00	 0.000E+00	 0.000E+00	 0.000E+00	 0.000E+00	 0.000E+00	 1.000E+00	 0.000E+00	 0.000E+00	 0.000E+00	 0.000E+00	|	 0.000E+00	 0.000E+00	 0.000E+00	|	 0.000E+00
-3.379E-07	|	 4.818E-03	|	 0.000E+00	 0.000E+00	 0.000E+00	 0.000E+00	 0.000E+00	 0.000E+00	 0.000E+00	 0.000E+00	 1.000E+00	 0.000E+00	 0.000E+00	 0.000E+00	|	 0.000E+00	 0.000E+00	 0.000E+00	|	 0.000E+00
 4.194E-01	|	 2.702E+00	|	 0.000E+00	 0.000E+00	 0.000E+00	 0.000E+00	 0.000E+00	 0.000E+00	 0.000E+00	 0.000E+00	 0.000E+00	 1.000E+00	 0.000E+00	 0.000E+00	|	 0.000E+00	 0.000E+00	 0.000E+00	|	 0.000E+00
-1.069E-01	|	 3.119E+00	|	 0.000E+00	 0.000E+00	 0.000E+00	 0.000E+00	 0.000E+00	 0.000E+00	 0.000E+00	 0.000E+00	 0.000E+00	 0.000E+00	 1.000E+00	 0.000E+00	|	 0.000E+00	 0.000E+00	 0.000E+00	|	 0.000E+00
-3.134E-01	|	 2.546E+00	|	 0.000E+00	 0.000E+00	 0.000E+00	 0.000E+00	 0.000E+00	 0.000E+00	 0.000E+00	 0.000E+00	 0.000E+00	 0.000E+00	 0.000E+00	 1.000E+00	|	 0.000E+00	 0.000E+00	 0.000E+00	|	 0.000E+00
 2.002E-04	|	 2.212E-04	|	-4.429E+00	-3.364E-02	-1.283E+01	 1.832E-01	 5.884E-02	 1.007E-01	-5.613E-02	-9.103E-02	-1.827E-01	 9.433E-03	 3.561E-03	 5.473E-03	|	-1.646E-01	-1.046E-01	 1.712E-01	|	 4.688E-02
-1.589E-05	|	 1.267E+00	|	-6.679E-09	-7.817E-10	 1.726E+02	 1.415E-09	-5.382E-09	 7.375E-09	-5.154E-09	-2.702E+00	 1.237E+00	-6.677E-10	 8.969E-11	-1.993E-11	|	-4.794E-08	-1.610E-07	-9.119E-09	|	 1.703E-08
 2.505E-07	|	-3.379E-07	|	-2.846E-02	-1.346E-04	-1.972E+02	 1.992E-02	 1.916E-02	 1.940E-02	-3.529E-03	 2.635E+00	-1.480E+00	 1.428E-03	 1.388E-03	 1.122E-03	|	 1.863E-01	 1.752E-01	 1.938E-01	|	 4.112E-03
 1.308E-01	|	 4.194E-01	|	 1.839E+01	 6.877E+00	 9.027E+02	-2.188E+01	-8.922E-01	-1.066E+00	-1.557E+01	-3.680E+01	-3.039E+01	-4.935E+00	-6.041E-02	-5.876E-02	|	-5.765E+02	-5.449E+00	-7.183E+00	|	 9.118E+00
-5.205E-01	|	-1.069E-01	|	 5.237E+00	-3.631E+00	 8.528E+02	-8.554E-01	-2.121E+01	-7.608E-01	-1.985E-01	-3.812E+01	-3.199E+01	-5.905E-02	-5.039E+00	-4.477E-02	|	-6.395E+00	-5.885E+02	-6.949E+00	|	 9.542E+00
 3.962E-01	|	-3.134E-01	|	 9.664E+00	-3.081E+00	 8.662E+02	-1.028E+00	-7.693E-01	-2.136E+01	-1.087E+01	-3.060E+01	-2.437E+01	-6.716E-02	-5.469E-02	-4.857E+00	|	-6.161E+00	-5.891E+00	-5.853E+02	|	 9.322E+00

op Output 	|	This colmn	|	C - Output	          	          	          	          	          	          	          	          	          	          	          	|	D - Trnsmt	          	          	|	Dd - DTsmt
Measurmnts	|	is blank  	|	Matrix    	          	          	          	          	          	          	          	          	          	          	          	|	Matrix    	          	          	|	Matrix    
 1.210E+01	|	          	|	 0.000E+00	 0.000E+00	 0.000E+00	 0.000E+00	 0.000E+00	 0.000E+00	 0.000E+00	 9.549E+00	 9.549E+00	 0.000E+00	 0.000E+00	 0.000E+00	|	 0.000E+00	 0.000E+00	 0.000E+00	|	 0.000E+00
 4.917E+00	|	          	|	 0.000E+00	 1.000E+00	 0.000E+00	 0.000E+00	 0.000E+00	 0.000E+00	 0.000E+00	 0.000E+00	 0.000E+00	 0.000E+00	 0.000E+00	 0.000E+00	|	 0.000E+00	 0.000E+00	 0.000E+00	|	 0.000E+00
 1.267E+00	|	          	|	 0.000E+00	 0.000E+00	 0.000E+00	 0.000E+00	 0.000E+00	 0.000E+00	 0.000E+00	 1.000E+00	 0.000E+00	 0.000E+00	 0.000E+00	 0.000E+00	|	 0.000E+00	 0.000E+00	 0.000E+00	|	 0.000E+00
 4.818E-03	|	          	|	 0.000E+00	 0.000E+00	 1.000E+00	 0.000E+00	 0.000E+00	 0.000E+00	 0.000E+00	 0.000E+00	 0.000E+00	 0.000E+00	 0.000E+00	 0.000E+00	|	 0.000E+00	 0.000E+00	 0.000E+00	|	 0.000E+00
-3.379E-07	|	          	|	 0.000E+00	 0.000E+00	 0.000E+00	 0.000E+00	 0.000E+00	 0.000E+00	 0.000E+00	 0.000E+00	 1.000E+00	 0.000E+00	 0.000E+00	 0.000E+00	|	 0.000E+00	 0.000E+00	 0.000E+00	|	 0.000E+00
 1.174E+03	|	          	|	 0.000E+00	 0.000E+00	 0.000E+00	 0.000E+00	 0.000E+00	 0.000E+00	 0.000E+00	 9.263E+02	 0.000E+00	 0.000E+00	 0.000E+00	 0.000E+00	|	 0.000E+00	 0.000E+00	 0.000E+00	|	 0.000E+00
 2.002E-04	|	          	|	-4.429E+00	-3.364E-02	-1.283E+01	 1.832E-01	 5.884E-02	 1.007E-01	-5.613E-02	-9.103E-02	-1.827E-01	 9.433E-03	 3.561E-03	 5.473E-03	|	-1.646E-01	-1.046E-01	 1.712E-01	|	 4.688E-02
 2.212E-04	|	          	|	 0.000E+00	 0.000E+00	 0.000E+00	 0.000E+00	 0.000E+00	 0.000E+00	 1.000E+00	 0.000E+00	 0.000E+00	 0.000E+00	 0.000E+00	 0.000E+00	|	 0.000E+00	 0.000E+00	 0.000E+00	|	 0.000E+00
 2.177E-01	|	          	|	 1.000E+00	 0.000E+00	 0.000E+00	 0.000E+00	 0.000E+00	 0.000E+00	 0.000E+00	 0.000E+00	 0.000E+00	 0.000E+00	 0.000E+00	 0.000E+00	|	 0.000E+00	 0.000E+00	 0.000E+00	|	 0.000E+00


--------- Azimuth =  15.00 deg (with respect to AzimB1Up =   0.00 deg) ---------
op State  	|	op        	|	A - State 	          	          	          	          	          	          	          	          	          	          	          	|	B - Input 	          	          	|	Bd - Dstrb
Derivativs	|	States    	|	Matrix    	          	          	          	          	          	          	          	          	          	          	          	|	Matrix    	          	          	|	Matrix    
 2.268E-04	|	 2.177E-01	|	 0.000E+00	 0.000E+00	 0.000E+00	 0.000E+00	 0.000E+00	 0.000E+00	 1.000E+00	 0.000E+00	 0.000E+00	 0.000E+00	 0.000E+00	 0.000E+00	|	 0.000E+00	 0.000E+00	 0.000E+00	|	 0.000E+00
 1.267E+00	|	 4.969E+00	|	 0.000E+00	 0.000E+00	 0.000E+00	 0.000E+00	 0.000E+00	 0.000E+00	 0.000E+00	 1.000E+00	 0.000E+00	 0.000E+00	 0.000E+00	 0.000E+00	|	 0.000E+00	 0.000E+00	 0.000E+00	|	 0.000E+00
-3.091E-07	|	 4.818E-03	|	 0.000E+00	 0.000E+00	 0.000E+00	 0.000E+00	 0.000E+00	 0.000E+00	 0.000E+00	 0.000E+00	 1.000E+00	 0.000E+00	 0.000E+00	 0.000E+00	|	 0.000E+00	 0.000E+00	 0.000E+00	|	 0.000E+00