
This linearized model file was generated by FAST (v7.02.00d-bjj, 20-Feb-2013) on 12-Jul-2018 at 22:08:29.
The aerodynamic calculations were made by AeroDyn (v13.00.02a-bjj, 20-Feb-2013).

 NREL 5.0 MW Baseline Wind Turbine for Use in Offshore Analysis.


Some Useful Information:

   Type of steady state solution found                Trimmed collective blade pitch (TrimCase = 3)
   Azimuth-average rotor speed, RotSpeed      (rad/s)    1.26711E+00
   Period of steady state solution              (sec)    4.95868E+00
   Iterations needed to find steady state solution      64
   Displacement 2-norm of steady state solution (rad)    5.65178E-05
   Velocity 2-norm of steady state solution   (rad/s)    8.79463E-06
   Number of equally-speced azimuth steps, NAzimStep   120
   Order of linearized model, MdlOrder                   1
   Number of active (enabled) DOFs                       6 (12 states)
   Number of control inputs, NInputs                     3
   Number of input wind disturbances, NDisturbs          1
   Number of output measurements                         9


Order of States in Linearized State Matrices:

   Row/column  1 = 1st tower fore-aft bending mode DOF (internal DOF index = DOF_TFA1)
   Row/column  2 = Variable speed generator DOF (internal DOF index = DOF_GeAz)
   Row/column  3 = Drivetrain rotational-flexibility DOF (internal DOF index = DOF_DrTr)
   Row/column  4 = 1st flapwise bending-mode DOF of blade 1 (internal DOF index = DOF_BF(1,1))
   Row/column  5 = 1st flapwise bending-mode DOF of blade 2 (internal DOF index = DOF_BF(2,1))
   Row/column  6 = 1st flapwise bending-mode DOF of blade 3 (internal DOF index = DOF_BF(3,1))
   Row/column  7 to 12 = First derivatives of row/column  1 to  6.


Order of Control Inputs in Linearized State Matrices:

   Column 1 = individual pitch of blade 1       (rad)    2.38143E-01 op
   Column 2 = individual pitch of blade 2       (rad)    2.38143E-01 op
   Column 3 = individual pitch of blade 3       (rad)    2.38143E-01 op


Order of Input Wind Disturbances in Linearized State Matrices:

   Column 1 = horizontal hub-height wind speed  (m/s) : See selected wind file for op


Order of Output Measurements in Linearized State Matrices:

   Row   1 = RotSpeed   (rpm)     
   Row   2 = Q_GeAz     (rad)     
   Row   3 = QD_GeAz    (rad/s)   
   Row   4 = Q_DrTr     (rad)     
   Row   5 = QD_DrTr    (rad/s)   
   Row   6 = GenSpeed   (rpm)     
   Row   7 = QD2_TFA1   (m/s^2)   
   Row   8 = QD_TFA1    (m/s)     
   Row   9 = Q_TFA1     (m)       


Linearized State Matrices:

--------- Azimuth =   0.00 deg (with respect to AzimB1Up =   0.00 deg) ---------
op State  	|	op        	|	A - State 	          	          	          	          	          	          	          	          	          	          	          	|	B - Input 	          	          	|	Bd - Dstrb
Derivativs	|	States    	|	Matrix    	          	          	          	          	          	          	          	          	          	          	          	|	Matrix    	          	          	|	Matrix    
 2.886E-04	|	 1.892E-01	|	 0.000E+00	 0.000E+00	 0.000E+00	 0.000E+00	 0.000E+00	 0.000E+00	 1.000E+00	 0.000E+00	 0.000E+00	 0.000E+00	 0.000E+00	 0.000E+00	|	 0.000E+00	 0.000E+00	 0.000E+00	|	 0.000E+00
 1.267E+00	|	 4.708E+00	|	 0.000E+00	 0.000E+00	 0.000E+00	 0.000E+00	 0.000E+00	 0.000E+00	 0.000E+00	 1.000E+00	 0.000E+00	 0.000E+00	 0.000E+00	 0.000E+00	|	 0.000E+00	 0.000E+00	 0.000E+00	|	 0.000E+00
-2.354E-06	|	 4.818E-03	|	 0.000E+00	 0.000E+00	 0.000E+00	 0.000E+00	 0.000E+00	 0.000E+00	 0.000E+00	 0.000E+00	 1.000E+00	 0.000E+00	 0.000E+00	 0.000E+00	|	 0.000E+00	 0.000E+00	 0.000E+00	|	 0.000E+00
 3.827E-01	|	 2.022E+00	|	 0.000E+00	 0.000E+00	 0.000E+00	 0.000E+00	 0.000E+00	 0.000E+00	 0.000E+00	 0.000E+00	 0.000E+00	 1.000E+00	 0.000E+00	 0.000E+00	|	 0.000E+00	 0.000E+00	 0.000E+00	|	 0.000E+00
-2.005E-02	|	 2.501E+00	|	 0.000E+00	 0.000E+00	 0.000E+00	 0.000E+00	 0.000E+00	 0.000E+00	 0.000E+00	 0.000E+00	 0.000E+00	 0.000E+00	 1.000E+00	 0.000E+00	|	 0.000E+00	 0.000E+00	 0.000E+00	|	 0.000E+00
-3.653E-01	|	 1.983E+00	|	 0.000E+00	 0.000E+00	 0.000E+00	 0.000E+00	 0.000E+00	 0.000E+00	 0.000E+00	 0.000E+00	 0.000E+00	 0.000E+00	 0.000E+00	 1.000E+00	|	 0.000E+00	 0.000E+00	 0.000E+00	|	 0.000E+00
 1.028E-03	|	 2.886E-04	|	-4.426E+00	-3.310E-02	-1.487E+01	 1.864E-01	 7.071E-02	 8.832E-02	-5.714E-02	-7.603E-02	-1.823E-01	 9.925E-03	 4.304E-03	 5.207E-03	|	-1.614E-01	-1.724E-01	 1.769E-01	|	 4.715E-02
-4.076E-06	|	 1.267E+00	|	 3.363E-09	-3.420E-09	 1.726E+02	-8.536E-09	 5.533E-09	-2.110E-09	-1.021E-08	-2.702E+00	 1.237E+00	-2.756E-09	-9.517E-10	 1.891E-09	|	-2.247E-08	-1.226E-07	 1.486E-07	|	 7.908E-09
-5.343E-06	|	-2.354E-06	|	-3.301E-02	-3.071E-04	-1.980E+02	 2.356E-02	 2.270E-02	 2.282E-02	-2.042E-03	 2.672E+00	-1.448E+00	 1.974E-03	 2.055E-03	 1.645E-03	|	 2.134E-01	 1.977E-01	 2.232E-01	|	 2.664E-03
 2.200E-01	|	 3.827E-01	|	 1.879E+01	 6.739E+00	 1.068E+03	-2.212E+01	-1.178E+00	-1.252E+00	-1.764E+01	-7.087E+01	-6.327E+01	-5.260E+00	-9.791E-02	-8.526E-02	|	-6.163E+02	-7.055E+00	-9.445E+00	|	 9.263E+00
-5.154E-01	|	-2.005E-02	|	 6.172E+00	-2.430E+00	 1.017E+03	-1.147E+00	-2.134E+01	-1.004E+00	-1.199E+00	-7.502E+01	-6.771E+01	-8.979E-02	-5.404E+00	-7.132E-02	|	-8.298E+00	-6.279E+02	-9.076E+00	|	 9.608E+00
 3.009E-01	|	-3.653E-01	|	 8.529E+00	-4.114E+00	 1.021E+03	-1.212E+00	-1.004E+00	-2.141E+01	-9.223E+00	-6.362E+01	-5.628E+01	-9.315E-02	-8.782E-02	-5.123E+00	|	-8.252E+00	-7.608E+00	-6.140E+02	|	 9.440E+00

op Output 	|	This colmn	|	C - Output	          	          	          	          	          	          	          	          	          	          	          	|	D - Trnsmt	          	          	|	Dd - DTsmt
Measurmnts	|	is blank  	|	Matrix    	          	          	          	          	          	          	          	          	          	          	          	|	Matrix    	          	          	|	Matrix    
 1.210E+01	|	          	|	 0.000E+00	 0.000E+00	 0.000E+00	 0.000E+00	 0.000E+00	 0.000E+00	 0.000E+00	 9.549E+00	 9.549E+00	 0.000E+00	 0.000E+00	 0.000E+00	|	 0.000E+00	 0.000E+00	 0.000E+00	|	 0.000E+00
 4.708E+00	|	          	|	 0.000E+00	 1.000E+00	 0.000E+00	 0.000E+00	 0.000E+00	 0.000E+00	 0.000E+00	 0.000E+00	 0.000E+00	 0.000E+00	 0.000E+00	 0.000E+00	|	 0.000E+00	 0.000E+00	 0.000E+00	|	 0.000E+00
 1.267E+00	|	          	|	 0.000E+00	 0.000E+00	 0.000E+00	 0.000E+00	 0.000E+00	 0.000E+00	 0.000E+00	 1.000E+00	 0.000E+00	 0.000E+00	 0.000E+00	 0.000E+00	|	 0.000E+00	 0.000E+00	 0.000E+00	|	 0.000E+00
 4.818E-03	|	          	|	 0.000E+00	 0.000E+00	 1.000E+00	 0.000E+00	 0.000E+00	 0.000E+00	 0.000E+00	 0.000E+00	 0.000E+00	 0.000E+00	 0.000E+00	 0.000E+00	|	 0.000E+00	 0.000E+00	 0.000E+00	|	 0.000E+00
-2.354E-06	|	          	|	 0.000E+00	 0.000E+00	 0.000E+00	 0.000E+00	 0.000E+00	 0.000E+00	 0.000E+00	 0.000E+00	 1.000E+00	 0.000E+00	 0.000E+00	 0.000E+00	|	 0.000E+00	 0.000E+00	 0.000E+00	|	 0.000E+00
 1.174E+03	|	          	|	 0.000E+00	 0.000E+00	 0.000E+00	 0.000E+00	 0.000E+00	 0.000E+00	 0.000E+00	 9.263E+02	 0.000E+00	 0.000E+00	 0.000E+00	 0.000E+00	|	 0.000E+00	 0.000E+00	 0.000E+00	|	 0.000E+00
 1.027E-03	|	          	|	-4.426E+00	-3.310E-02	-1.487E+01	 1.864E-01	 7.071E-02	 8.832E-02	-5.714E-02	-7.603E-02	-1.823E-01	 9.925E-03	 4.304E-03	 5.207E-03	|	-1.614E-01	-1.724E-01	 1.769E-01	|	 4.715E-02
 2.886E-04	|	          	|	 0.000E+00	 0.000E+00	 0.000E+00	 0.000E+00	 0.000E+00	 0.000E+00	 1.000E+00	 0.000E+00	 0.000E+00	 0.000E+00	 0.000E+00	 0.000E+00	|	 0.000E+00	 0.000E+00	 0.000E+00	|	 0.000E+00
 1.892E-01	|	          	|	 1.000E+00	 0.000E+00	 0.000E+00	 0.000E+00	 0.000E+00	 0.000E+00	 0.000E+00	 0.000E+00	 0.000E+00	 0.000E+00	 0.000E+00	 0.000E+00	|	 0.000E+00	 0.000E+00	 0.000E+00	|	 0.000E+00


--------- Azimuth =   3.00 deg (with respect to AzimB1Up =   0.00 deg) ---------
op State  	|	op        	|	A - State 	          	          	          	          	          	          	          	          	          	          	          	|	B - Input 	          	          	|	Bd - Dstrb
Derivativs	|	States    	|	Matrix    	          	          	          	          	          	          	          	          	          	          	          	|	Matrix    	          	          	|	Matrix    
 3.274E-04	|	 1.892E-01	|	 0.000E+00	 0.000E+00	 0.000E+00	 0.000E+00	 0.000E+00	 0.000E+00	 1.000E+00	 0.000E+00	 0.000E+00	 0.000E+00	 0.000E+00	 0.000E+00	|	 0.000E+00	 0.000E+00	 0.000E+00	|	 0.000E+00
 1.267E+00	|	 4.760E+00	|	 0.000E+00	 0.000E+00	 0.000E+00	 0.000E+00	 0.000E+00	 0.000E+00	 0.000E+00	 1.000E+00	 0.000E+00	 0.000E+00	 0.000E+00	 0.000E+00	|	 0.000E+00	 0.000E+00	 0.000E+00	|	 0.000E+00
-2.421E-06	|	 4.818E-03	|	 0.000E+00	 0.000E+00	 0.000E+00	 0.000E+00	 0.000E+00	 0.000E+00	 0.000E+00	 0.000E+00	 1.000E+00	 0.000E+00	 0.000E+00	 0.000E+00	|	 0.000E+00	 0.000E+00	 0.000E+00	|	 0.000E+00
 3.913E-01	|	 2.038E+00	|	 0.000E+00	 0.000E+00	 0.000E+00	 0.000E+00	 0.000E+00	 0.000E+00	 0.000E+00	 0.000E+00	 0.000E+00	 1.000E+00	 0.000E+00	 0.000E+00	|	 0.000E+00	 0.000E+00	 0.000E+00	|	 0.000E+00
-4.132E-02	|	 2.500E+00	|	 0.000E+00	 0.000E+00	 0.000E+00	 0.000E+00	 0.000E+00	 0.000E+00	 0.000E+00	 0.000E+00	 0.000E+00	 0.000E+00	 1.000E+00	 0.000E+00	|	 0.000E+00	 0.000E+00	 0.000E+00	|	 0.000E+00
-3.523E-01	|	 1.968E+00	|	 0.000E+00	 0.000E+00	 0.000E+00	 0.000E+00	 0.000E+00	 0.000E+00	 0.000E+00	 0.000E+00	 0.000E+00	 0.000E+00	 0.000E+00	 1.000E+00	|	 0.000E+00	 0.000E+00	 0.000E+00	|	 0.000E+00
 8.527E-04	|	 3.274E-04	|	-4.426E+00	-3.311E-02	-1.487E+01	 1.857E-01	 6.773E-02	 9.193E-02	-5.704E-02	-7.552E-02	-1.818E-01	 9.905E-03	 4.155E-03	 5.377E-03	|	-1.813E-01	-1.598E-01	 1.811E-01	|	 4.725E-02
-2.126E-05	|	 1.267E+00	|	 6.679E-09	-4.950E-10	 1.726E+02	 3.478E-09	-7.275E-10	 1.754E-09	 1.255E-10	-2.702E+00	 1.237E+00	-8.870E-10	-3.647E-09	 1.435E-09	|	 1.011E-07	 1.350E-07	 5.967E-08	|	 1.519E-09
 2.568E-06	|	-2.421E-06	|	-3.301E-02	-2.832E-04	-1.980E+02	 2.356E-02	 2.268E-02	 2.284E-02	-2.017E-03	 2.673E+00	-1.448E+00	 1.987E-03	 2.040E-03	 1.643E-03	|	 2.126E-01	 1.978E-01	 2.238E-01	|	 2.669E-03
 1.954E-01	|	 3.913E-01	|	 1.870E+01	 6.769E+00	 1.068E+03	-2.212E+01	-1.164E+00	-1.266E+00	-1.741E+01	-7.129E+01	-6.368E+01	-5.264E+00	-9.664E-02	-8.576E-02	|	-6.169E+02	-7.112E+00	-9.482E+00	|	 9.263E+00
-5.140E-01	|	-4.132E-02	|	 5.874E+00	-2.748E+00	 1.016E+03	-1.133E+00	-2.133E+01	-1.003E+00	-9.509E-01	-7.477E+01	-6.748E+01	-8.972E-02	-5.393E+00	-7.123E-02	|	-8.239E+00	-6.276E+02	-9.078E+00	|	 9.603E+00
 3.268E-01	|	-3.523E-01	|	 8.912E+00	-3.821E+00	 1.023E+03	-1.227E+00	-1.005E+00	-2.143E+01	-9.712E+00	-6.348E+01	-5.613E+01	-9.478E-02	-8.770E-02	-5.119E+00	|	-8.166E+00	-7.618E+00	-6.136E+02	|	 9.429E+00

op Output 	|	This colmn	|	C - Output	          	          	          	          	          	          	          	          	          	          	          	|	D - Trnsmt	          	          	|	Dd - DTsmt
Measurmnts	|	is blank  	|	Matrix    	          	          	          	          	          	          	          	          	          	          	          	|	Matrix    	          	          	|	Matrix    
 1.210E+01	|	          	|	 0.000E+00	 0.000E+00	 0.000E+00	 0.000E+00	 0.000E+00	 0.000E+00	 0.000E+00	 9.549E+00	 9.549E+00	 0.000E+00	 0.000E+00	 0.000E+00	|	 0.000E+00	 0.000E+00	 0.000E+00	|	 0.000E+00
 4.760E+00	|	          	|	 0.000E+00	 1.000E+00	 0.000E+00	 0.000E+00	 0.000E+00	 0.000E+00	 0.000E+00	 0.000E+00	 0.000E+00	 0.000E+00	 0.000E+00	 0.000E+00	|	 0.000E+00	 0.000E+00	 0.000E+00	|	 0.000E+00
 1.267E+00	|	          	|	 0.000E+00	 0.000E+00	 0.000E+00	 0.000E+00	 0.000E+00	 0.000E+00	 0.000E+00	 1.000E+00	 0.000E+00	 0.000E+00	 0.000E+00	 0.000E+00	|	 0.000E+00	 0.000E+00	 0.000E+00	|	 0.000E+00
 4.818E-03	|	          	|	 0.000E+00	 0.000E+00	 1.000E+00	 0.000E+00	 0.000E+00	 0.000E+00	 0.000E+00	 0.000E+00	 0.000E+00	 0.000E+00	 0.000E+00	 0.000E+00	|	 0.000E+00	 0.000E+00	 0.000E+00	|	 0.000E+00
-2.421E-06	|	          	|	 0.000E+00	 0.000E+00	 0.000E+00	 0.000E+00	 0.000E+00	 0.000E+00	 0.000E+00	 0.000E+00	 1.000E+00	 0.000E+00	 0.000E+00	 0.000E+00	|	 0.000E+00	 0.000E+00	 0.000E+00	|	 0.000E+00
 1.174E+03	|	          	|	 0.000E+00	 0.000E+00	 0.000E+00	 0.000E+00	 0.000E+00	 0.000E+00	 0.000E+00	 9.263E+02	 0.000E+00	 0.000E+00	 0.000E+00	 0.000E+00	|	 0.000E+00	 0.000E+00	 0.000E+00	|	 0.000E+00
 8.528E-04	|	          	|	-4.426E+00	-3.311E-02	-1.487E+01	 1.857E-01	 6.773E-02	 9.193E-02	-5.704E-02	-7.552E-02	-1.818E-01	 9.905E-03	 4.155E-03	 5.377E-03	|	-1.813E-01	-1.598E-01	 1.811E-01	|	 4.725E-02
 3.274E-04	|	          	|	 0.000E+00	 0.000E+00	 0.000E+00	 0.000E+00	 0.000E+00	 0.000E+00	 1.000E+00	 0.000E+00	 0.000E+00	 0.000E+00	 0.000E+00	 0.000E+00	|	 0.000E+00	 0.000E+00	 0.000E+00	|	 0.000E+00
 1.892E-01	|	          	|	 1.000E+00	 0.000E+00	 0.000E+00	 0.000E+00	 0.000E+00	 0.000E+00	 0.000E+00	 0.000E+00	 0.000E+00	 0.000E+00	 0.000E+00	 0.000E+00	|	 0.000E+00	 0.000E+00	 0.000E+00	|	 0.000E+00


--------- Azimuth =   6.00 deg (with respect to AzimB1Up =   0.00 deg) ---------
op State  	|	op        	|	A - State 	          	          	          	          	          	          	          	          	          	          	          	|	B - Input 	          	          	|	Bd - Dstrb
Derivativs	|	States    	|	Matrix    	          	          	          	          	          	          	          	          	          	          	          	|	Matrix    	          	          	|	Matrix    
 3.588E-04	|	 1.892E-01	|	 0.000E+00	 0.000E+00	 0.000E+00	 0.000E+00	 0.000E+00	 0.000E+00	 1.000E+00	 0.000E+00	 0.000E+00	 0.000E+00	 0.000E+00	 0.000E+00	|	 0.000E+00	 0.000E+00	 0.000E+00	|	 0.000E+00
 1.267E+00	|	 4.812E+00	|	 0.000E+00	 0.000E+00	 0.000E+00	 0.000E+00	 0.000E+00	 0.000E+00	 0.000E+00	 1.000E+00	 0.000E+00	 0.000E+00	 0.000E+00	 0.000E+00	|	 0.000E+00	 0.000E+00	 0.000E+00	|	 0.000E+00
-2.142E-06	|	 4.818E-03	|	 0.000E+00	 0.000E+00	 0.000E+00	 0.000E+00	 0.000E+00	 0.000E+00	 0.000E+00	 0.000E+00	 1.000E+00	 0.000E+00	 0.000E+00	 0.000E+00	|	 0.000E+00	 0.000E+00	 0.000E+00	|	 0.000E+00
 3.989E-01	|	 2.055E+00	|	 0.000E+00	 0.000E+00	 0.000E+00	 0.000E+00	 0.000E+00	 0.000E+00	 0.000E+00	 0.000E+00	 0.000E+00	 1.000E+00	 0.000E+00	 0.000E+00	|	 0.000E+00	 0.000E+00	 0.000E+00	|	 0.000E+00
-6.252E-02	|	 2.498E+00	|	 0.000E+00	 0.000E+00	 0.000E+00	 0.000E+00	 0.000E+00	 0.000E+00	 0.000E+00	 0.000E+00	 0.000E+00	 0.000E+00	 1.000E+00	 0.000E+00	|	 0.000E+00	 0.000E+00	 0.000E+00	|	 0.000E+00
-3.383E-01	|	 1.953E+00	|	 0.000E+00	 0.000E+00	 0.000E+00	 0.000E+00	 0.000E+00	 0.000E+00	 0.000E+00	 0.000E+00	 0.000E+00	 0.000E+00	 0.000E+00	 1.000E+00	|	 0.000E+00	 0.000E+00	 0.000E+00	|	 0.000E+00
 6.571E-04	|	 3.588E-04	|	-4.426E+00	-3.346E-02	-1.487E+01	 1.849E-01	 6.487E-02	 9.560E-02	-5.705E-02	-7.499E-02	-1.813E-01	 9.852E-03	 4.005E-03	 5.552E-03	|	-1.993E-01	-1.474E-01	 1.854E-01	|	 4.729E-02
-3.740E-05	|	 1.267E+00	|	-1.853E-09	-6.774E-10	 1.726E+02	 7.574E-10	 4.744E-09	-2.093E-09	 2.027E-09	-2.702E+00	 1.237E+00	 1.196E-10	-6.378E-10	 3.986E-10	|	-1.079E-07	-1.569E-07	-9.640E-08	|	-4.620E-09
 9.673E-06	|	-2.142E-06	|	-3.301E-02	-3.070E-04	-1.980E+02	 2.355E-02	 2.266E-02	 2.287E-02	-2.009E-03	 2.673E+00	-1.448E+00	 1.997E-03	 2.022E-03	 1.642E-03	|	 2.119E-01	 1.980E-01	 2.245E-01	|	 2.664E-03
 1.706E-01	|	 3.989E-01	|	 1.860E+01	 6.778E+00	 1.068E+03	-2.211E+01	-1.151E+00	-1.279E+00	-1.715E+01	-7.169E+01	-6.409E+01	-5.269E+00	-9.511E-02	-8.611E-02	|	-6.175E+02	-7.160E+00	-9.522E+00	|	 9.276E+00
-5.116E-01	|	-6.252E-02	|	 5.591E+00	-3.059E+00	 1.014E+03	-1.119E+00	-2.132E+01	-1.001E+00	-7.201E-01	-7.451E+01	-6.722E+01	-8.985E-02	-5.375E+00	-7.144E-02	|	-8.234E+00	-6.274E+02	-9.119E+00	|	 9.600E+00
 3.517E-01	|	-3.383E-01	|	 9.301E+00	-3.512E+00	 1.024E+03	-1.242E+00	-1.005E+00	-2.144E+01	-1.020E+01	-6.336E+01	-5.600E+01	-9.617E-02	-8.736E-02	-5.115E+00	|	-8.100E+00	-7.627E+00	-6.133E+02	|	 9.420E+00

op Output 	|	This colmn	|	C - Output	          	          	          	          	          	          	          	          	          	          	          	|	D - Trnsmt	          	          	|	Dd - DTsmt
Measurmnts	|	is blank  	|	Matrix    	          	          	          	          	          	          	          	          	          	          	          	|	Matrix    	          	          	|	Matrix    
 1.210E+01	|	          	|	 0.000E+00	 0.000E+00	 0.000E+00	 0.000E+00	 0.000E+00	 0.000E+00	 0.000E+00	 9.549E+00	 9.549E+00	 0.000E+00	 0.000E+00	 0.000E+00	|	 0.000E+00	 0.000E+00	 0.000E+00	|	 0.000E+00
 4.812E+00	|	          	|	 0.000E+00	 1.000E+00	 0.000E+00	 0.000E+00	 0.000E+00	 0.000E+00	 0.000E+00	 0.000E+00	 0.000E+00	 0.000E+00	 0.000E+00	 0.000E+00	|	 0.000E+00	 0.000E+00	 0.000E+00	|	 0.000E+00
 1.267E+00	|	          	|	 0.000E+00	 0.000E+00	 0.000E+00	 0.000E+00	 0.000E+00	 0.000E+00	 0.000E+00	 1.000E+00	 0.000E+00	 0.000E+00	 0.000E+00	 0.000E+00	|	 0.000E+00	 0.000E+00	 0.000E+00	|	 0.000E+00
 4.818E-03	|	          	|	 0.000E+00	 0.000E+00	 1.000E+00	 0.000E+00	 0.000E+00	 0.000E+00	 0.000E+00	 0.000E+00	 0.000E+00	 0.000E+00	 0.000E+00	 0.000E+00	|	 0.000E+00	 0.000E+00	 0.000E+00	|	 0.000E+00
-2.142E-06	|	          	|	 0.000E+00	 0.000E+00	 0.000E+00	 0.000E+00	 0.000E+00	 0.000E+00	 0.000E+00	 0.000E+00	 1.000E+00	 0.000E+00	 0.000E+00	 0.000E+00	|	 0.000E+00	 0.000E+00	 0.000E+00	|	 0.000E+00
 1.174E+03	|	          	|	 0.000E+00	 0.000E+00	 0.000E+00	 0.000E+00	 0.000E+00	 0.000E+00	 0.000E+00	 9.263E+02	 0.000E+00	 0.000E+00	 0.000E+00	 0.000E+00	|	 0.000E+00	 0.000E+00	 0.000E+00	|	 0.000E+00
 6.572E-04	|	          	|	-4.426E+00	-3.346E-02	-1.487E+01	 1.849E-01	 6.487E-02	 9.560E-02	-5.705E-02	-7.499E-02	-1.813E-01	 9.852E-03	 4.005E-03	 5.552E-03	|	-1.993E-01	-1.474E-01	 1.854E-01	|	 4.729E-02
 3.588E-04	|	          	|	 0.000E+00	 0.000E+00	 0.000E+00	 0.000E+00	 0.000E+00	 0.000E+00	 1.000E+00	 0.000E+00	 0.000E+00	 0.000E+00	 0.000E+00	 0.000E+00	|	 0.000E+00	 0.000E+00	 0.000E+00	|	 0.000E+00
 1.892E-01	|	          	|	 1.000E+00	 0.000E+00	 0.000E+00	 0.000E+00	 0.000E+00	 0.000E+00	 0.000E+00	 0.000E+00	 0.000E+00	 0.000E+00	 0.000E+00	 0.000E+00	|	 0.000E+00	 0.000E+00	 0.000E+00	|	 0.000E+00


--------- Azimuth =   9.00 deg (with respect to AzimB1Up =   0.00 deg) ---------
op State  	|	op        	|	A - State 	          	          	          	          	          	          	          	          	          	          	          	|	B - Input 	          	          	|	Bd - Dstrb
Derivativs	|	States    	|	Matrix    	          	          	          	          	          	          	          	          	          	          	          	|	Matrix    	          	          	|	Matrix    
 3.816E-04	|	 1.893E-01	|	 0.000E+00	 0.000E+00	 0.000E+00	 0.000E+00	 0.000E+00	 0.000E+00	 1.000E+00	 0.000E+00	 0.000E+00	 0.000E+00	 0.000E+00	 0.000E+00	|	 0.000E+00	 0.000E+00	 0.000E+00	|	 0.000E+00
 1.267E+00	|	 4.865E+00	|	 0.000E+00	 0.000E+00	 0.000E+00	 0.000E+00	 0.000E+00	 0.000E+00	 0.000E+00	 1.000E+00	 0.000E+00	 0.000E+00	 0.000E+00	 0.000E+00	|	 0.000E+00	 0.000E+00	 0.000E+00	|	 0.000E+00
-1.650E-06	|	 4.817E-03	|	 0.000E+00	 0.000E+00	 0.000E+00	 0.000E+00	 0.000E+00	 0.000E+00	 0.000E+00	 0.000E+00	 1.000E+00	 0.000E+00	 0.000E+00	 0.000E+00	|	 0.000E+00	 0.000E+00	 0.000E+00	|	 0.000E+00
 4.054E-01	|	 2.071E+00	|	 0.000E+00	 0.000E+00	 0.000E+00	 0.000E+00	 0.000E+00	 0.000E+00	 0.000E+00	 0.000E+00	 0.000E+00	 1.000E+00	 0.000E+00	 0.000E+00	|	 0.000E+00	 0.000E+00	 0.000E+00	|	 0.000E+00
-8.359E-02	|	 2.495E+00	|	 0.000E+00	 0.000E+00	 0.000E+00	 0.000E+00	 0.000E+00	 0.000E+00	 0.000E+00	 0.000E+00	 0.000E+00	 0.000E+00	 1.000E+00	 0.000E+00	|	 0.000E+00	 0.000E+00	 0.000E+00	|	 0.000E+00
-3.232E-01	|	 1.940E+00	|	 0.000E+00	 0.000E+00	 0.000E+00	 0.000E+00	 0.000E+00	 0.000E+00	 0.000E+00	 0.000E+00	 0.000E+00	 0.000E+00	 0.000E+00	 1.000E+00	|	 0.000E+00	 0.000E+00	 0.000E+00	|	 0.000E+00
 4.434E-04	|	 3.816E-04	|	-4.426E+00	-3.346E-02	-1.487E+01	 1.839E-01	 6.216E-02	 9.932E-02	-5.710E-02	-7.446E-02	-1.807E-01	 9.832E-03	 3.855E-03	 5.726E-03	|	-2.163E-01	-1.347E-01	 1.893E-01	|	 4.729E-02
-5.038E-05	|	 1.267E+00	|	-2.422E-09	 3.960E-09	 1.726E+02	-9.607E-09	-4.405E-09	-6.159E-09	-1.785E-09	-2.702E+00	 1.237E+00	-2.651E-09	 3.069E-09	 1.694E-09	|	 1.381E-07	-3.804E-08	 6.774E-08	|	 9.532E-09
 1.393E-05	|	-1.650E-06	|	-3.302E-02	-2.867E-04	-1.980E+02	 2.355E-02	 2.264E-02	 2.289E-02	-2.006E-03	 2.673E+00	-1.448E+00	 2.014E-03	 2.003E-03	 1.642E-03	|	 2.113E-01	 1.981E-01	 2.250E-01	|	 2.660E-03
 1.451E-01	|	 4.054E-01	|	 1.847E+01	 6.765E+00	 1.067E+03	-2.210E+01	-1.138E+00	-1.293E+00	-1.688E+01	-7.208E+01	-6.449E+01	-5.286E+00	-9.330E-02	-8.618E-02	|	-6.180E+02	-7.243E+00	-9.575E+00	|	 9.292E+00
-5.084E-01	|	-8.359E-02	|	 5.328E+00	-3.383E+00	 1.013E+03	-1.106E+00	-2.131E+01	-9.993E-01	-5.140E-01	-7.423E+01	-6.695E+01	-8.933E-02	-5.358E+00	-7.073E-02	|	-8.207E+00	-6.272E+02	-9.123E+00	|	 9.597E+00
 3.758E-01	|	-3.232E-01	|	 9.695E+00	-3.197E+00	 1.026E+03	-1.256E+00	-1.005E+00	-2.146E+01	-1.068E+01	-6.326E+01	-5.589E+01	-9.709E-02	-8.608E-02	-5.111E+00	|	-8.008E+00	-7.628E+00	-6.129E+02	|	 9.410E+00

op Output 	|	This colmn	|	C - Output	          	          	          	          	          	          	          	          	          	          	          	|	D - Trnsmt	          	          	|	Dd - DTsmt
Measurmnts	|	is blank  	|	Matrix    	          	          	          	          	          	          	          	          	          	          	          	|	Matrix    	          	          	|	Matrix    
 1.210E+01	|	          	|	 0.000E+00	 0.000E+00	 0.000E+00	 0.000E+00	 0.000E+00	 0.000E+00	 0.000E+00	 9.549E+00	 9.549E+00	 0.000E+00	 0.000E+00	 0.000E+00	|	 0.000E+00	 0.000E+00	 0.000E+00	|	 0.000E+00
 4.865E+00	|	          	|	 0.000E+00	 1.000E+00	 0.000E+00	 0.000E+00	 0.000E+00	 0.000E+00	 0.000E+00	 0.000E+00	 0.000E+00	 0.000E+00	 0.000E+00	 0.000E+00	|	 0.000E+00	 0.000E+00	 0.000E+00	|	 0.000E+00
 1.267E+00	|	          	|	 0.000E+00	 0.000E+00	 0.000E+00	 0.000E+00	 0.000E+00	 0.000E+00	 0.000E+00	 1.000E+00	 0.000E+00	 0.000E+00	 0.000E+00	 0.000E+00	|	 0.000E+00	 0.000E+00	 0.000E+00	|	 0.000E+00
 4.817E-03	|	          	|	 0.000E+00	 0.000E+00	 1.000E+00	 0.000E+00	 0.000E+00	 0.000E+00	 0.000E+00	 0.000E+00	 0.000E+00	 0.000E+00	 0.000E+00	 0.000E+00	|	 0.000E+00	 0.000E+00	 0.000E+00	|	 0.000E+00
-1.650E-06	|	          	|	 0.000E+00	 0.000E+00	 0.000E+00	 0.000E+00	 0.000E+00	 0.000E+00	 0.000E+00	 0.000E+00	 1.000E+00	 0.000E+00	 0.000E+00	 0.000E+00	|	 0.000E+00	 0.000E+00	 0.000E+00	|	 0.000E+00
 1.174E+03	|	          	|	 0.000E+00	 0.000E+00	 0.000E+00	 0.000E+00	 0.000E+00	 0.000E+00	 0.000E+00	 9.263E+02	 0.000E+00	 0.000E+00	 0.000E+00	 0.000E+00	|	 0.000E+00	 0.000E+00	 0.000E+00	|	 0.000E+00
 4.438E-04	|	          	|	-4.426E+00	-3.346E-02	-1.487E+01	 1.839E-01	 6.216E-02	 9.932E-02	-5.710E-02	-7.446E-02	-1.807E-01	 9.832E-03	 3.855E-03	 5.726E-03	|	-2.163E-01	-1.347E-01	 1.893E-01	|	 4.729E-02
 3.816E-04	|	          	|	 0.000E+00	 0.000E+00	 0.000E+00	 0.000E+00	 0.000E+00	 0.000E+00	 1.000E+00	 0.000E+00	 0.000E+00	 0.000E+00	 0.000E+00	 0.000E+00	|	 0.000E+00	 0.000E+00	 0.000E+00	|	 0.000E+00
 1.893E-01	|	          	|	 1.000E+00	 0.000E+00	 0.000E+00	 0.000E+00	 0.000E+00	 0.000E+00	 0.000E+00	 0.000E+00	 0.000E+00	 0.000E+00	 0.000E+00	 0.000E+00	|	 0.000E+00	 0.000E+00	 0.000E+00	|	 0.000E+00


--------- Azimuth =  12.00 deg (with respect to AzimB1Up =   0.00 deg) ---------
op State  	|	op        	|	A - State 	          	          	          	          	          	          	          	          	          	          	          	|	B - Input 	          	          	|	Bd - Dstrb
Derivativs	|	States    	|	Matrix    	          	          	          	          	          	          	          	          	          	          	          	|	Matrix    	          	          	|	Matrix    
 3.954E-04	|	 1.893E-01	|	 0.000E+00	 0.000E+00	 0.000E+00	 0.000E+00	 0.000E+00	 0.000E+00	 1.000E+00	 0.000E+00	 0.000E+00	 0.000E+00	 0.000E+00	 0.000E+00	|	 0.000E+00	 0.000E+00	 0.000E+00	|	 0.000E+00
 1.267E+00	|	 4.917E+00	|	 0.000E+00	 0.000E+00	 0.000E+00	 0.000E+00	 0.000E+00	 0.000E+00	 0.000E+00	 1.000E+00	 0.000E+00	 0.000E+00	 0.000E+00	 0.000E+00	|	 0.000E+00	 0.000E+00	 0.000E+00	|	 0.000E+00
-1.040E-06	|	 4.817E-03	|	 0.000E+00	 0.000E+00	 0.000E+00	 0.000E+00	 0.000E+00	 0.000E+00	 0.000E+00	 0.000E+00	 1.000E+00	 0.000E+00	 0.000E+00	 0.000E+00	|	 0.000E+00	 0.000E+00	 0.000E+00	|	 0.000E+00
 4.109E-01	|	 2.088E+00	|	 0.000E+00	 0.000E+00	 0.000E+00	 0.000E+00	 0.000E+00	 0.000E+00	 0.000E+00	 0.000E+00	 0.000E+00	 1.000E+00	 0.000E+00	 0.000E+00	|	 0.000E+00	 0.000E+00	 0.000E+00	|	 0.000E+00
-1.046E-01	|	 2.491E+00	|	 0.000E+00	 0.000E+00	 0.000E+00	 0.000E+00	 0.000E+00	 0.000E+00	 0.000E+00	 0.000E+00	 0.000E+00	 0.000E+00	 1.000E+00	 0.000E+00	|	 0.000E+00	 0.000E+00	 0.000E+00	|	 0.000E+00
-3.072E-01	|	 1.927E+00	|	 0.000E+00	 0.000E+00	 0.000E+00	 0.000E+00	 0.000E+00	 0.000E+00	 0.000E+00	 0.000E+00	 0.000E+00	 0.000E+00	 0.000E+00	 1.000E+00	|	 0.000E+00	 0.000E+00	 0.000E+00	|	 0.000E+00
 2.241E-04	|	 3.954E-04	|	-4.426E+00	-3.355E-02	-1.487E+01	 1.827E-01	 5.958E-02	 1.031E-01	-5.718E-02	-7.409E-02	-1.804E-01	 9.775E-03	 3.718E-03	 5.902E-03	|	-2.310E-01	-1.220E-01	 1.930E-01	|	 4.725E-02
-5.920E-05	|	 1.267E+00	|	 3.754E-09	 3.856E-09	 1.726E+02	 2.810E-09	 1.614E-09	-1.933E-09	-2.992E-09	-2.702E+00	 1.237E+00	 9.567E-10	-2.252E-09	-1.136E-09	|	 1.501E-07	 1.662E-07	 7.452E-08	|	 3.820E-09
 1.506E-05	|	-1.040E-06	|	-3.303E-02	-2.799E-04	-1.980E+02	 2.354E-02	 2.262E-02	 2.292E-02	-2.010E-03	 2.673E+00	-1.448E+00	 2.030E-03	 1.985E-03	 1.642E-03	|	 2.110E-01	 1.983E-01	 2.256E-01	|	 2.649E-03
 1.189E-01	|	 4.109E-01	|	 1.832E+01	 6.727E+00	 1.067E+03	-2.209E+01	-1.125E+00	-1.306E+00	-1.658E+01	-7.248E+01	-6.488E+01	-5.309E+00	-9.178E-02	-8.669E-02	|	-6.187E+02	-7.302E+00	-9.610E+00	|	 9.305E+00
-5.064E-01	|	-1.046E-01	|	 5.077E+00	-3.680E+00	 1.012E+03	-1.093E+00	-2.130E+01	-9.975E-01	-3.320E-01	-7.397E+01	-6.669E+01	-8.988E-02	-5.342E+00	-7.113E-02	|	-8.219E+00	-6.269E+02	-9.147E+00	|	 9.593E+00
 3.988E-01	|	-3.072E-01	|	 1.009E+01	-2.870E+00	 1.028E+03	-1.270E+00	-1.005E+00	-2.148E+01	-1.116E+01	-6.317E+01	-5.579E+01	-9.868E-02	-8.564E-02	-5.108E+00	|	-7.939E+00	-7.636E+00	-6.126E+02	|	 9.400E+00

op Output 	|	This colmn	|	C - Output	          	          	          	          	          	          	          	          	          	          	          	|	D - Trnsmt	          	          	|	Dd - DTsmt
Measurmnts	|	is blank  	|	Matrix    	          	          	          	          	          	          	          	          	          	          	          	|	Matrix    	          	          	|	Matrix    
 1.210E+01	|	          	|	 0.000E+00	 0.000E+00	 0.000E+00	 0.000E+00	 0.000E+00	 0.000E+00	 0.000E+00	 9.549E+00	 9.549E+00	 0.000E+00	 0.000E+00	 0.000E+00	|	 0.000E+00	 0.000E+00	 0.000E+00	|	 0.000E+00
 4.917E+00	|	          	|	 0.000E+00	 1.000E+00	 0.000E+00	 0.000E+00	 0.000E+00	 0.000E+00	 0.000E+00	 0.000E+00	 0.000E+00	 0.000E+00	 0.000E+00	 0.000E+00	|	 0.000E+00	 0.000E+00	 0.000E+00	|	 0.000E+00
 1.267E+00	|	          	|	 0.000E+00	 0.000E+00	 0.000E+00	 0.000E+00	 0.000E+00	 0.000E+00	 0.000E+00	 1.000E+00	 0.000E+00	 0.000E+00	 0.000E+00	 0.000E+00	|	 0.000E+00	 0.000E+00	 0.000E+00	|	 0.000E+00
 4.817E-03	|	          	|	 0.000E+00	 0.000E+00	 1.000E+00	 0.000E+00	 0.000E+00	 0.000E+00	 0.000E+00	 0.000E+00	 0.000E+00	 0.000E+00	 0.000E+00	 0.000E+00	|	 0.000E+00	 0.000E+00	 0.000E+00	|	 0.000E+00
-1.040E-06	|	          	|	 0.000E+00	 0.000E+00	 0.000E+00	 0.000E+00	 0.000E+00	 0.000E+00	 0.000E+00	 0.000E+00	 1.000E+00	 0.000E+00	 0.000E+00	 0.000E+00	|	 0.000E+00	 0.000E+00	 0.000E+00	|	 0.000E+00
 1.174E+03	|	          	|	 0.000E+00	 0.000E+00	 0.000E+00	 0.000E+00	 0.000E+00	 0.000E+00	 0.000E+00	 9.263E+02	 0.000E+00	 0.000E+00	 0.000E+00	 0.000E+00	|	 0.000E+00	 0.000E+00	 0.000E+00	|	 0.000E+00
 2.242E-04	|	          	|	-4.426E+00	-3.355E-02	-1.487E+01	 1.827E-01	 5.958E-02	 1.031E-01	-5.718E-02	-7.409E-02	-1.804E-01	 9.775E-03	 3.718E-03	 5.902E-03	|	-2.310E-01	-1.220E-01	 1.930E-01	|	 4.725E-02
 3.954E-04	|	          	|	 0.000E+00	 0.000E+00	 0.000E+00	 0.000E+00	 0.000E+00	 0.000E+00	 1.000E+00	 0.000E+00	 0.000E+00	 0.000E+00	 0.000E+00	 0.000E+00	|	 0.000E+00	 0.000E+00	 0.000E+00	|	 0.000E+00
 1.893E-01	|	          	|	 1.000E+00	 0.000E+00	 0.000E+00	 0.000E+00	 0.000E+00	 0.000E+00	 0.000E+00	 0.000E+00	 0.000E+00	 0.000E+00	 0.000E+00	 0.000E+00	|	 0.000E+00	 0.000E+00	 0.000E+00	|	 0.000E+00


--------- Azimuth =  15.00 deg (with respect to AzimB1Up =   0.00 deg) ---------
op State  	|	op        	|	A - State 	          	          	          	          	          	          	          	          	          	          	          	|	B - Input 	          	          	|	Bd - Dstrb
Derivativs	|	States    	|	Matrix    	          	          	          	          	          	          	          	          	          	          	          	|	Matrix    	          	          	|	Matrix    
 3.999E-04	|	 1.893E-01	|	 0.000E+00	 0.000E+00	 0.000E+00	 0.000E+00	 0.000E+00	 0.000E+00	 1.000E+00	 0.000E+00	 0.000E+00	 0.000E+00	 0.000E+00	 0.000E+00	|	 0.000E+00	 0.000E+00	 0.000E+00	|	 0.000E+00
 1.267E+00	|	 4.969E+00	|	 0.000E+00	 0.000E+00	 0.000E+00	 0.000E+00	 0.000E+00	 0.000E+00	 0.000E+00	 1.000E+00	 0.000E+00	 0.000E+00	 0.000E+00	 0.000E+00	|	 0.000E+00	 0.000E+00	 0.000E+00	|	 0.000E+00
-4.651E-07	|	 4.817E-03	|	 0.000E+00	 0.000E+00	 0.000E+00	 0.000E+00	 0.000E+00	 0.000E+00	 0.000E+00	 0.000E+00	 1.000E+00	 0.000E+00	 0.000E+00	 0.000E+00	|	 0.000E+00	 0.000E+00	 0.000E+00	|	 0.000E+00