
This linearized model file was generated by FAST (v7.02.00d-bjj, 20-Feb-2013) on 12-Jul-2018 at 22:04:52.
The aerodynamic calculations were made by AeroDyn (v13.00.02a-bjj, 20-Feb-2013).

 NREL 5.0 MW Baseline Wind Turbine for Use in Offshore Analysis.


Some Useful Information:

   Type of steady state solution found                Trimmed collective blade pitch (TrimCase = 3)
   Azimuth-average rotor speed, RotSpeed      (rad/s)    1.26711E+00
   Period of steady state solution              (sec)    4.95868E+00
   Iterations needed to find steady state solution     126
   Displacement 2-norm of steady state solution (rad)    9.53783E-05
   Velocity 2-norm of steady state solution   (rad/s)    7.37841E-06
   Number of equally-speced azimuth steps, NAzimStep   120
   Order of linearized model, MdlOrder                   1
   Number of active (enabled) DOFs                       6 (12 states)
   Number of control inputs, NInputs                     3
   Number of input wind disturbances, NDisturbs          1
   Number of output measurements                         9


Order of States in Linearized State Matrices:

   Row/column  1 = 1st tower fore-aft bending mode DOF (internal DOF index = DOF_TFA1)
   Row/column  2 = Variable speed generator DOF (internal DOF index = DOF_GeAz)
   Row/column  3 = Drivetrain rotational-flexibility DOF (internal DOF index = DOF_DrTr)
   Row/column  4 = 1st flapwise bending-mode DOF of blade 1 (internal DOF index = DOF_BF(1,1))
   Row/column  5 = 1st flapwise bending-mode DOF of blade 2 (internal DOF index = DOF_BF(2,1))
   Row/column  6 = 1st flapwise bending-mode DOF of blade 3 (internal DOF index = DOF_BF(3,1))
   Row/column  7 to 12 = First derivatives of row/column  1 to  6.


Order of Control Inputs in Linearized State Matrices:

   Column 1 = individual pitch of blade 1       (rad)    7.13157E-02 op
   Column 2 = individual pitch of blade 2       (rad)    7.13157E-02 op
   Column 3 = individual pitch of blade 3       (rad)    7.13157E-02 op


Order of Input Wind Disturbances in Linearized State Matrices:

   Column 1 = horizontal hub-height wind speed  (m/s) : See selected wind file for op


Order of Output Measurements in Linearized State Matrices:

   Row   1 = RotSpeed   (rpm)     
   Row   2 = Q_GeAz     (rad)     
   Row   3 = QD_GeAz    (rad/s)   
   Row   4 = Q_DrTr     (rad)     
   Row   5 = QD_DrTr    (rad/s)   
   Row   6 = GenSpeed   (rpm)     
   Row   7 = QD2_TFA1   (m/s^2)   
   Row   8 = QD_TFA1    (m/s)     
   Row   9 = Q_TFA1     (m)       


Linearized State Matrices:

--------- Azimuth = 360.00 deg (with respect to AzimB1Up =   0.00 deg) ---------
op State  	|	op        	|	A - State 	          	          	          	          	          	          	          	          	          	          	          	|	B - Input 	          	          	|	Bd - Dstrb
Derivativs	|	States    	|	Matrix    	          	          	          	          	          	          	          	          	          	          	          	|	Matrix    	          	          	|	Matrix    
 9.358E-05	|	 3.070E-01	|	 0.000E+00	 0.000E+00	 0.000E+00	 0.000E+00	 0.000E+00	 0.000E+00	 1.000E+00	 0.000E+00	 0.000E+00	 0.000E+00	 0.000E+00	 0.000E+00	|	 0.000E+00	 0.000E+00	 0.000E+00	|	 0.000E+00
 1.267E+00	|	 4.708E+00	|	 0.000E+00	 0.000E+00	 0.000E+00	 0.000E+00	 0.000E+00	 0.000E+00	 0.000E+00	 1.000E+00	 0.000E+00	 0.000E+00	 0.000E+00	 0.000E+00	|	 0.000E+00	 0.000E+00	 0.000E+00	|	 0.000E+00
-5.651E-08	|	 4.818E-03	|	 0.000E+00	 0.000E+00	 0.000E+00	 0.000E+00	 0.000E+00	 0.000E+00	 0.000E+00	 0.000E+00	 1.000E+00	 0.000E+00	 0.000E+00	 0.000E+00	|	 0.000E+00	 0.000E+00	 0.000E+00	|	 0.000E+00
 3.447E-01	|	 4.200E+00	|	 0.000E+00	 0.000E+00	 0.000E+00	 0.000E+00	 0.000E+00	 0.000E+00	 0.000E+00	 0.000E+00	 0.000E+00	 1.000E+00	 0.000E+00	 0.000E+00	|	 0.000E+00	 0.000E+00	 0.000E+00	|	 0.000E+00
 1.178E-02	|	 4.679E+00	|	 0.000E+00	 0.000E+00	 0.000E+00	 0.000E+00	 0.000E+00	 0.000E+00	 0.000E+00	 0.000E+00	 0.000E+00	 0.000E+00	 1.000E+00	 0.000E+00	|	 0.000E+00	 0.000E+00	 0.000E+00	|	 0.000E+00
-3.576E-01	|	 4.213E+00	|	 0.000E+00	 0.000E+00	 0.000E+00	 0.000E+00	 0.000E+00	 0.000E+00	 0.000E+00	 0.000E+00	 0.000E+00	 0.000E+00	 0.000E+00	 1.000E+00	|	 0.000E+00	 0.000E+00	 0.000E+00	|	 0.000E+00
 4.189E-04	|	 9.358E-05	|	-4.435E+00	-3.005E-02	-8.566E+00	 1.854E-01	 6.998E-02	 8.073E-02	-5.022E-02	-4.348E-02	-1.046E-01	 8.384E-03	 3.660E-03	 3.633E-03	|	 6.830E-02	-9.239E-02	 1.659E-01	|	 4.233E-02
-9.608E-06	|	 1.267E+00	|	-9.434E-09	 2.475E-09	 1.726E+02	 3.159E-09	 9.318E-10	-1.993E-10	-3.004E-09	-2.703E+00	 1.237E+00	 4.983E-12	-1.146E-10	-9.567E-10	|	-1.085E-07	 5.354E-08	-2.436E-08	|	-4.966E-09
 1.578E-06	|	-5.651E-08	|	-1.908E-02	-7.085E-05	-1.960E+02	 1.286E-02	 1.244E-02	 1.249E-02	-7.008E-03	 2.588E+00	-1.519E+00	 2.717E-04	 2.332E-04	 5.105E-05	|	 1.492E-01	 1.341E-01	 1.445E-01	|	 8.597E-03
 2.569E-01	|	 3.447E-01	|	 1.860E+01	 6.066E+00	 5.847E+02	-2.152E+01	-5.797E-01	-6.254E-01	-1.394E+01	 2.556E+01	 2.970E+01	-4.065E+00	-1.328E-02	-8.790E-03	|	-4.968E+02	-1.869E+00	-3.223E+00	|	 9.392E+00
-4.955E-01	|	 1.178E-02	|	 6.776E+00	-1.435E+00	 5.522E+02	-5.414E-01	-2.105E+01	-3.955E-01	-3.739E-01	 2.659E+01	 3.055E+01	-2.140E-02	-4.226E+00	-1.017E-02	|	-4.045E+00	-5.047E+02	-4.029E+00	|	 9.971E+00
 2.420E-01	|	-3.576E-01	|	 7.462E+00	-4.538E+00	 5.516E+02	-5.805E-01	-3.954E-01	-2.110E+01	-8.219E+00	 3.091E+01	 3.489E+01	-2.316E-02	-1.494E-02	-4.100E+00	|	-4.059E+00	-3.452E+00	-5.156E+02	|	 9.670E+00

op Output 	|	This colmn	|	C - Output	          	          	          	          	          	          	          	          	          	          	          	|	D - Trnsmt	          	          	|	Dd - DTsmt
Measurmnts	|	is blank  	|	Matrix    	          	          	          	          	          	          	          	          	          	          	          	|	Matrix    	          	          	|	Matrix    
 1.210E+01	|	          	|	 0.000E+00	 0.000E+00	 0.000E+00	 0.000E+00	 0.000E+00	 0.000E+00	 0.000E+00	 9.549E+00	 9.549E+00	 0.000E+00	 0.000E+00	 0.000E+00	|	 0.000E+00	 0.000E+00	 0.000E+00	|	 0.000E+00
 4.708E+00	|	          	|	 0.000E+00	 1.000E+00	 0.000E+00	 0.000E+00	 0.000E+00	 0.000E+00	 0.000E+00	 0.000E+00	 0.000E+00	 0.000E+00	 0.000E+00	 0.000E+00	|	 0.000E+00	 0.000E+00	 0.000E+00	|	 0.000E+00
 1.267E+00	|	          	|	 0.000E+00	 0.000E+00	 0.000E+00	 0.000E+00	 0.000E+00	 0.000E+00	 0.000E+00	 1.000E+00	 0.000E+00	 0.000E+00	 0.000E+00	 0.000E+00	|	 0.000E+00	 0.000E+00	 0.000E+00	|	 0.000E+00
 4.818E-03	|	          	|	 0.000E+00	 0.000E+00	 1.000E+00	 0.000E+00	 0.000E+00	 0.000E+00	 0.000E+00	 0.000E+00	 0.000E+00	 0.000E+00	 0.000E+00	 0.000E+00	|	 0.000E+00	 0.000E+00	 0.000E+00	|	 0.000E+00
-5.651E-08	|	          	|	 0.000E+00	 0.000E+00	 0.000E+00	 0.000E+00	 0.000E+00	 0.000E+00	 0.000E+00	 0.000E+00	 1.000E+00	 0.000E+00	 0.000E+00	 0.000E+00	|	 0.000E+00	 0.000E+00	 0.000E+00	|	 0.000E+00
 1.174E+03	|	          	|	 0.000E+00	 0.000E+00	 0.000E+00	 0.000E+00	 0.000E+00	 0.000E+00	 0.000E+00	 9.263E+02	 0.000E+00	 0.000E+00	 0.000E+00	 0.000E+00	|	 0.000E+00	 0.000E+00	 0.000E+00	|	 0.000E+00
 4.189E-04	|	          	|	-4.435E+00	-3.005E-02	-8.566E+00	 1.854E-01	 6.998E-02	 8.073E-02	-5.022E-02	-4.348E-02	-1.046E-01	 8.384E-03	 3.660E-03	 3.633E-03	|	 6.830E-02	-9.239E-02	 1.659E-01	|	 4.233E-02
 9.358E-05	|	          	|	 0.000E+00	 0.000E+00	 0.000E+00	 0.000E+00	 0.000E+00	 0.000E+00	 1.000E+00	 0.000E+00	 0.000E+00	 0.000E+00	 0.000E+00	 0.000E+00	|	 0.000E+00	 0.000E+00	 0.000E+00	|	 0.000E+00
 3.070E-01	|	          	|	 1.000E+00	 0.000E+00	 0.000E+00	 0.000E+00	 0.000E+00	 0.000E+00	 0.000E+00	 0.000E+00	 0.000E+00	 0.000E+00	 0.000E+00	 0.000E+00	|	 0.000E+00	 0.000E+00	 0.000E+00	|	 0.000E+00


--------- Azimuth =   3.00 deg (with respect to AzimB1Up =   0.00 deg) ---------
op State  	|	op        	|	A - State 	          	          	          	          	          	          	          	          	          	          	          	|	B - Input 	          	          	|	Bd - Dstrb
Derivativs	|	States    	|	Matrix    	          	          	          	          	          	          	          	          	          	          	          	|	Matrix    	          	          	|	Matrix    
 1.079E-04	|	 3.070E-01	|	 0.000E+00	 0.000E+00	 0.000E+00	 0.000E+00	 0.000E+00	 0.000E+00	 1.000E+00	 0.000E+00	 0.000E+00	 0.000E+00	 0.000E+00	 0.000E+00	|	 0.000E+00	 0.000E+00	 0.000E+00	|	 0.000E+00
 1.267E+00	|	 4.760E+00	|	 0.000E+00	 0.000E+00	 0.000E+00	 0.000E+00	 0.000E+00	 0.000E+00	 0.000E+00	 1.000E+00	 0.000E+00	 0.000E+00	 0.000E+00	 0.000E+00	|	 0.000E+00	 0.000E+00	 0.000E+00	|	 0.000E+00
 8.566E-09	|	 4.818E-03	|	 0.000E+00	 0.000E+00	 0.000E+00	 0.000E+00	 0.000E+00	 0.000E+00	 0.000E+00	 0.000E+00	 1.000E+00	 0.000E+00	 0.000E+00	 0.000E+00	|	 0.000E+00	 0.000E+00	 0.000E+00	|	 0.000E+00
 3.548E-01	|	 4.215E+00	|	 0.000E+00	 0.000E+00	 0.000E+00	 0.000E+00	 0.000E+00	 0.000E+00	 0.000E+00	 0.000E+00	 0.000E+00	 1.000E+00	 0.000E+00	 0.000E+00	|	 0.000E+00	 0.000E+00	 0.000E+00	|	 0.000E+00
-8.707E-03	|	 4.679E+00	|	 0.000E+00	 0.000E+00	 0.000E+00	 0.000E+00	 0.000E+00	 0.000E+00	 0.000E+00	 0.000E+00	 0.000E+00	 0.000E+00	 1.000E+00	 0.000E+00	|	 0.000E+00	 0.000E+00	 0.000E+00	|	 0.000E+00
-3.471E-01	|	 4.198E+00	|	 0.000E+00	 0.000E+00	 0.000E+00	 0.000E+00	 0.000E+00	 0.000E+00	 0.000E+00	 0.000E+00	 0.000E+00	 0.000E+00	 0.000E+00	 1.000E+00	|	 0.000E+00	 0.000E+00	 0.000E+00	|	 0.000E+00
 3.524E-04	|	 1.079E-04	|	-4.435E+00	-3.012E-02	-8.566E+00	 1.850E-01	 6.680E-02	 8.434E-02	-5.024E-02	-4.324E-02	-1.044E-01	 8.380E-03	 3.514E-03	 3.779E-03	|	 5.386E-02	-8.654E-02	 1.745E-01	|	 4.229E-02
-1.004E-05	|	 1.267E+00	|	-5.528E-09	 2.371E-09	 1.726E+02	-1.714E-09	-7.275E-09	 2.337E-09	 3.045E-09	-2.703E+00	 1.237E+00	 9.418E-10	 6.179E-10	 1.440E-09	|	-7.986E-08	 8.820E-08	-1.047E-07	|	 1.154E-08
 1.477E-06	|	 8.566E-09	|	-1.908E-02	-7.127E-05	-1.960E+02	 1.286E-02	 1.243E-02	 1.250E-02	-7.010E-03	 2.588E+00	-1.519E+00	 2.770E-04	 2.258E-04	 5.217E-05	|	 1.489E-01	 1.339E-01	 1.449E-01	|	 8.596E-03
 2.335E-01	|	 3.548E-01	|	 1.856E+01	 6.143E+00	 5.846E+02	-2.151E+01	-5.657E-01	-6.398E-01	-1.371E+01	 2.543E+01	 2.957E+01	-4.069E+00	-1.243E-02	-9.391E-03	|	-4.964E+02	-1.893E+00	-3.263E+00	|	 9.400E+00
-4.960E-01	|	-8.707E-03	|	 6.450E+00	-1.750E+00	 5.512E+02	-5.263E-01	-2.105E+01	-3.940E-01	-1.998E-01	 2.675E+01	 3.071E+01	-2.132E-02	-4.227E+00	-1.036E-02	|	-4.062E+00	-5.053E+02	-4.077E+00	|	 9.980E+00
 2.664E-01	|	-3.471E-01	|	 7.823E+00	-4.298E+00	 5.526E+02	-5.958E-01	-3.961E-01	-2.111E+01	-8.633E+00	 3.087E+01	 3.486E+01	-2.360E-02	-1.449E-02	-4.095E+00	|	-3.989E+00	-3.402E+00	-5.154E+02	|	 9.652E+00

op Output 	|	This colmn	|	C - Output	          	          	          	          	          	          	          	          	          	          	          	|	D - Trnsmt	          	          	|	Dd - DTsmt
Measurmnts	|	is blank  	|	Matrix    	          	          	          	          	          	          	          	          	          	          	          	|	Matrix    	          	          	|	Matrix    
 1.210E+01	|	          	|	 0.000E+00	 0.000E+00	 0.000E+00	 0.000E+00	 0.000E+00	 0.000E+00	 0.000E+00	 9.549E+00	 9.549E+00	 0.000E+00	 0.000E+00	 0.000E+00	|	 0.000E+00	 0.000E+00	 0.000E+00	|	 0.000E+00
 4.760E+00	|	          	|	 0.000E+00	 1.000E+00	 0.000E+00	 0.000E+00	 0.000E+00	 0.000E+00	 0.000E+00	 0.000E+00	 0.000E+00	 0.000E+00	 0.000E+00	 0.000E+00	|	 0.000E+00	 0.000E+00	 0.000E+00	|	 0.000E+00
 1.267E+00	|	          	|	 0.000E+00	 0.000E+00	 0.000E+00	 0.000E+00	 0.000E+00	 0.000E+00	 0.000E+00	 1.000E+00	 0.000E+00	 0.000E+00	 0.000E+00	 0.000E+00	|	 0.000E+00	 0.000E+00	 0.000E+00	|	 0.000E+00
 4.818E-03	|	          	|	 0.000E+00	 0.000E+00	 1.000E+00	 0.000E+00	 0.000E+00	 0.000E+00	 0.000E+00	 0.000E+00	 0.000E+00	 0.000E+00	 0.000E+00	 0.000E+00	|	 0.000E+00	 0.000E+00	 0.000E+00	|	 0.000E+00
 8.566E-09	|	          	|	 0.000E+00	 0.000E+00	 0.000E+00	 0.000E+00	 0.000E+00	 0.000E+00	 0.000E+00	 0.000E+00	 1.000E+00	 0.000E+00	 0.000E+00	 0.000E+00	|	 0.000E+00	 0.000E+00	 0.000E+00	|	 0.000E+00
 1.174E+03	|	          	|	 0.000E+00	 0.000E+00	 0.000E+00	 0.000E+00	 0.000E+00	 0.000E+00	 0.000E+00	 9.263E+02	 0.000E+00	 0.000E+00	 0.000E+00	 0.000E+00	|	 0.000E+00	 0.000E+00	 0.000E+00	|	 0.000E+00
 3.525E-04	|	          	|	-4.435E+00	-3.012E-02	-8.566E+00	 1.850E-01	 6.680E-02	 8.434E-02	-5.024E-02	-4.324E-02	-1.044E-01	 8.380E-03	 3.514E-03	 3.779E-03	|	 5.386E-02	-8.654E-02	 1.745E-01	|	 4.229E-02
 1.079E-04	|	          	|	 0.000E+00	 0.000E+00	 0.000E+00	 0.000E+00	 0.000E+00	 0.000E+00	 1.000E+00	 0.000E+00	 0.000E+00	 0.000E+00	 0.000E+00	 0.000E+00	|	 0.000E+00	 0.000E+00	 0.000E+00	|	 0.000E+00
 3.070E-01	|	          	|	 1.000E+00	 0.000E+00	 0.000E+00	 0.000E+00	 0.000E+00	 0.000E+00	 0.000E+00	 0.000E+00	 0.000E+00	 0.000E+00	 0.000E+00	 0.000E+00	|	 0.000E+00	 0.000E+00	 0.000E+00	|	 0.000E+00


--------- Azimuth =   6.00 deg (with respect to AzimB1Up =   0.00 deg) ---------
op State  	|	op        	|	A - State 	          	          	          	          	          	          	          	          	          	          	          	|	B - Input 	          	          	|	Bd - Dstrb
Derivativs	|	States    	|	Matrix    	          	          	          	          	          	          	          	          	          	          	          	|	Matrix    	          	          	|	Matrix    
 1.209E-04	|	 3.070E-01	|	 0.000E+00	 0.000E+00	 0.000E+00	 0.000E+00	 0.000E+00	 0.000E+00	 1.000E+00	 0.000E+00	 0.000E+00	 0.000E+00	 0.000E+00	 0.000E+00	|	 0.000E+00	 0.000E+00	 0.000E+00	|	 0.000E+00
 1.267E+00	|	 4.812E+00	|	 0.000E+00	 0.000E+00	 0.000E+00	 0.000E+00	 0.000E+00	 0.000E+00	 0.000E+00	 1.000E+00	 0.000E+00	 0.000E+00	 0.000E+00	 0.000E+00	|	 0.000E+00	 0.000E+00	 0.000E+00	|	 0.000E+00
 5.279E-08	|	 4.818E-03	|	 0.000E+00	 0.000E+00	 0.000E+00	 0.000E+00	 0.000E+00	 0.000E+00	 0.000E+00	 0.000E+00	 1.000E+00	 0.000E+00	 0.000E+00	 0.000E+00	|	 0.000E+00	 0.000E+00	 0.000E+00	|	 0.000E+00
 3.640E-01	|	 4.230E+00	|	 0.000E+00	 0.000E+00	 0.000E+00	 0.000E+00	 0.000E+00	 0.000E+00	 0.000E+00	 0.000E+00	 0.000E+00	 1.000E+00	 0.000E+00	 0.000E+00	|	 0.000E+00	 0.000E+00	 0.000E+00	|	 0.000E+00
-2.919E-02	|	 4.679E+00	|	 0.000E+00	 0.000E+00	 0.000E+00	 0.000E+00	 0.000E+00	 0.000E+00	 0.000E+00	 0.000E+00	 0.000E+00	 0.000E+00	 1.000E+00	 0.000E+00	|	 0.000E+00	 0.000E+00	 0.000E+00	|	 0.000E+00
-3.356E-01	|	 4.184E+00	|	 0.000E+00	 0.000E+00	 0.000E+00	 0.000E+00	 0.000E+00	 0.000E+00	 0.000E+00	 0.000E+00	 0.000E+00	 0.000E+00	 0.000E+00	 1.000E+00	|	 0.000E+00	 0.000E+00	 0.000E+00	|	 0.000E+00
 2.792E-04	|	 1.209E-04	|	-4.435E+00	-3.014E-02	-8.566E+00	 1.843E-01	 6.374E-02	 8.803E-02	-5.024E-02	-4.307E-02	-1.042E-01	 8.372E-03	 3.374E-03	 3.931E-03	|	 3.776E-02	-8.083E-02	 1.833E-01	|	 4.228E-02
-9.688E-06	|	 1.267E+00	|	-3.672E-09	-4.403E-09	 1.726E+02	-3.927E-09	-6.528E-09	-6.777E-10	 2.244E-10	-2.703E+00	 1.237E+00	 5.531E-10	-1.335E-09	 1.829E-09	|	-8.702E-08	-3.960E-08	-6.944E-08	|	-2.960E-09
 4.085E-07	|	 5.279E-08	|	-1.908E-02	-7.617E-05	-1.960E+02	 1.286E-02	 1.242E-02	 1.252E-02	-7.009E-03	 2.588E+00	-1.519E+00	 2.825E-04	 2.186E-04	 5.423E-05	|	 1.484E-01	 1.337E-01	 1.453E-01	|	 8.598E-03
 2.096E-01	|	 3.640E-01	|	 1.851E+01	 6.203E+00	 5.846E+02	-2.151E+01	-5.519E-01	-6.541E-01	-1.345E+01	 2.530E+01	 2.944E+01	-4.073E+00	-1.177E-02	-1.010E-02	|	-4.961E+02	-1.918E+00	-3.312E+00	|	 9.410E+00
-4.953E-01	|	-2.919E-02	|	 6.135E+00	-2.062E+00	 5.502E+02	-5.118E-01	-2.105E+01	-3.924E-01	-4.608E-02	 2.691E+01	 3.087E+01	-2.122E-02	-4.229E+00	-1.066E-02	|	-4.073E+00	-5.059E+02	-4.121E+00	|	 9.989E+00
 2.902E-01	|	-3.356E-01	|	 8.193E+00	-4.045E+00	 5.536E+02	-6.111E-01	-3.966E-01	-2.112E+01	-9.043E+00	 3.082E+01	 3.482E+01	-2.405E-02	-1.399E-02	-4.089E+00	|	-3.908E+00	-3.352E+00	-5.151E+02	|	 9.634E+00

op Output 	|	This colmn	|	C - Output	          	          	          	          	          	          	          	          	          	          	          	|	D - Trnsmt	          	          	|	Dd - DTsmt
Measurmnts	|	is blank  	|	Matrix    	          	          	          	          	          	          	          	          	          	          	          	|	Matrix    	          	          	|	Matrix    
 1.210E+01	|	          	|	 0.000E+00	 0.000E+00	 0.000E+00	 0.000E+00	 0.000E+00	 0.000E+00	 0.000E+00	 9.549E+00	 9.549E+00	 0.000E+00	 0.000E+00	 0.000E+00	|	 0.000E+00	 0.000E+00	 0.000E+00	|	 0.000E+00
 4.812E+00	|	          	|	 0.000E+00	 1.000E+00	 0.000E+00	 0.000E+00	 0.000E+00	 0.000E+00	 0.000E+00	 0.000E+00	 0.000E+00	 0.000E+00	 0.000E+00	 0.000E+00	|	 0.000E+00	 0.000E+00	 0.000E+00	|	 0.000E+00
 1.267E+00	|	          	|	 0.000E+00	 0.000E+00	 0.000E+00	 0.000E+00	 0.000E+00	 0.000E+00	 0.000E+00	 1.000E+00	 0.000E+00	 0.000E+00	 0.000E+00	 0.000E+00	|	 0.000E+00	 0.000E+00	 0.000E+00	|	 0.000E+00
 4.818E-03	|	          	|	 0.000E+00	 0.000E+00	 1.000E+00	 0.000E+00	 0.000E+00	 0.000E+00	 0.000E+00	 0.000E+00	 0.000E+00	 0.000E+00	 0.000E+00	 0.000E+00	|	 0.000E+00	 0.000E+00	 0.000E+00	|	 0.000E+00
 5.279E-08	|	          	|	 0.000E+00	 0.000E+00	 0.000E+00	 0.000E+00	 0.000E+00	 0.000E+00	 0.000E+00	 0.000E+00	 1.000E+00	 0.000E+00	 0.000E+00	 0.000E+00	|	 0.000E+00	 0.000E+00	 0.000E+00	|	 0.000E+00
 1.174E+03	|	          	|	 0.000E+00	 0.000E+00	 0.000E+00	 0.000E+00	 0.000E+00	 0.000E+00	 0.000E+00	 9.263E+02	 0.000E+00	 0.000E+00	 0.000E+00	 0.000E+00	|	 0.000E+00	 0.000E+00	 0.000E+00	|	 0.000E+00
 2.799E-04	|	          	|	-4.435E+00	-3.014E-02	-8.566E+00	 1.843E-01	 6.374E-02	 8.803E-02	-5.024E-02	-4.307E-02	-1.042E-01	 8.372E-03	 3.374E-03	 3.931E-03	|	 3.776E-02	-8.083E-02	 1.833E-01	|	 4.228E-02
 1.209E-04	|	          	|	 0.000E+00	 0.000E+00	 0.000E+00	 0.000E+00	 0.000E+00	 0.000E+00	 1.000E+00	 0.000E+00	 0.000E+00	 0.000E+00	 0.000E+00	 0.000E+00	|	 0.000E+00	 0.000E+00	 0.000E+00	|	 0.000E+00
 3.070E-01	|	          	|	 1.000E+00	 0.000E+00	 0.000E+00	 0.000E+00	 0.000E+00	 0.000E+00	 0.000E+00	 0.000E+00	 0.000E+00	 0.000E+00	 0.000E+00	 0.000E+00	|	 0.000E+00	 0.000E+00	 0.000E+00	|	 0.000E+00


--------- Azimuth =   9.00 deg (with respect to AzimB1Up =   0.00 deg) ---------
op State  	|	op        	|	A - State 	          	          	          	          	          	          	          	          	          	          	          	|	B - Input 	          	          	|	Bd - Dstrb
Derivativs	|	States    	|	Matrix    	          	          	          	          	          	          	          	          	          	          	          	|	Matrix    	          	          	|	Matrix    
 1.309E-04	|	 3.070E-01	|	 0.000E+00	 0.000E+00	 0.000E+00	 0.000E+00	 0.000E+00	 0.000E+00	 1.000E+00	 0.000E+00	 0.000E+00	 0.000E+00	 0.000E+00	 0.000E+00	|	 0.000E+00	 0.000E+00	 0.000E+00	|	 0.000E+00
 1.267E+00	|	 4.865E+00	|	 0.000E+00	 0.000E+00	 0.000E+00	 0.000E+00	 0.000E+00	 0.000E+00	 0.000E+00	 1.000E+00	 0.000E+00	 0.000E+00	 0.000E+00	 0.000E+00	|	 0.000E+00	 0.000E+00	 0.000E+00	|	 0.000E+00
 4.532E-08	|	 4.818E-03	|	 0.000E+00	 0.000E+00	 0.000E+00	 0.000E+00	 0.000E+00	 0.000E+00	 0.000E+00	 0.000E+00	 1.000E+00	 0.000E+00	 0.000E+00	 0.000E+00	|	 0.000E+00	 0.000E+00	 0.000E+00	|	 0.000E+00
 3.721E-01	|	 4.245E+00	|	 0.000E+00	 0.000E+00	 0.000E+00	 0.000E+00	 0.000E+00	 0.000E+00	 0.000E+00	 0.000E+00	 0.000E+00	 1.000E+00	 0.000E+00	 0.000E+00	|	 0.000E+00	 0.000E+00	 0.000E+00	|	 0.000E+00
-4.962E-02	|	 4.677E+00	|	 0.000E+00	 0.000E+00	 0.000E+00	 0.000E+00	 0.000E+00	 0.000E+00	 0.000E+00	 0.000E+00	 0.000E+00	 0.000E+00	 1.000E+00	 0.000E+00	|	 0.000E+00	 0.000E+00	 0.000E+00	|	 0.000E+00
-3.232E-01	|	 4.171E+00	|	 0.000E+00	 0.000E+00	 0.000E+00	 0.000E+00	 0.000E+00	 0.000E+00	 0.000E+00	 0.000E+00	 0.000E+00	 0.000E+00	 0.000E+00	 1.000E+00	|	 0.000E+00	 0.000E+00	 0.000E+00	|	 0.000E+00
 2.011E-04	|	 1.309E-04	|	-4.435E+00	-3.012E-02	-8.566E+00	 1.835E-01	 6.082E-02	 9.178E-02	-5.022E-02	-4.312E-02	-1.043E-01	 8.351E-03	 3.239E-03	 4.085E-03	|	 2.264E-02	-7.545E-02	 1.921E-01	|	 4.229E-02
-9.161E-06	|	 1.267E+00	|	 8.141E-09	 2.045E-09	 1.726E+02	-5.068E-09	-5.262E-09	 4.898E-09	 3.981E-09	-2.703E+00	 1.237E+00	-5.680E-10	-1.993E-09	-1.041E-09	|	 1.213E-07	 1.894E-07	 3.700E-08	|	-5.443E-09
-6.750E-07	|	 4.532E-08	|	-1.908E-02	-6.973E-05	-1.960E+02	 1.286E-02	 1.241E-02	 1.253E-02	-7.007E-03	 2.588E+00	-1.519E+00	 2.876E-04	 2.111E-04	 5.607E-05	|	 1.480E-01	 1.335E-01	 1.457E-01	|	 8.603E-03
 1.851E-01	|	 3.721E-01	|	 1.843E+01	 6.246E+00	 5.844E+02	-2.150E+01	-5.384E-01	-6.681E-01	-1.318E+01	 2.518E+01	 2.933E+01	-4.077E+00	-1.097E-02	-1.066E-02	|	-4.958E+02	-1.944E+00	-3.357E+00	|	 9.420E+00
-4.933E-01	|	-4.962E-02	|	 5.834E+00	-2.368E+00	 5.493E+02	-4.977E-01	-2.105E+01	-3.904E-01	 8.706E-02	 2.708E+01	 3.103E+01	-2.098E-02	-4.230E+00	-1.099E-02	|	-4.086E+00	-5.065E+02	-4.166E+00	|	 9.996E+00
 3.131E-01	|	-3.232E-01	|	 8.570E+00	-3.782E+00	 5.547E+02	-6.262E-01	-3.970E-01	-2.113E+01	-9.448E+00	 3.077E+01	 3.477E+01	-2.449E-02	-1.352E-02	-4.084E+00	|	-3.832E+00	-3.307E+00	-5.148E+02	|	 9.617E+00

op Output 	|	This colmn	|	C - Output	          	          	          	          	          	          	          	          	          	          	          	|	D - Trnsmt	          	          	|	Dd - DTsmt
Measurmnts	|	is blank  	|	Matrix    	          	          	          	          	          	          	          	          	          	          	          	|	Matrix    	          	          	|	Matrix    
 1.210E+01	|	          	|	 0.000E+00	 0.000E+00	 0.000E+00	 0.000E+00	 0.000E+00	 0.000E+00	 0.000E+00	 9.549E+00	 9.549E+00	 0.000E+00	 0.000E+00	 0.000E+00	|	 0.000E+00	 0.000E+00	 0.000E+00	|	 0.000E+00
 4.865E+00	|	          	|	 0.000E+00	 1.000E+00	 0.000E+00	 0.000E+00	 0.000E+00	 0.000E+00	 0.000E+00	 0.000E+00	 0.000E+00	 0.000E+00	 0.000E+00	 0.000E+00	|	 0.000E+00	 0.000E+00	 0.000E+00	|	 0.000E+00
 1.267E+00	|	          	|	 0.000E+00	 0.000E+00	 0.000E+00	 0.000E+00	 0.000E+00	 0.000E+00	 0.000E+00	 1.000E+00	 0.000E+00	 0.000E+00	 0.000E+00	 0.000E+00	|	 0.000E+00	 0.000E+00	 0.000E+00	|	 0.000E+00
 4.818E-03	|	          	|	 0.000E+00	 0.000E+00	 1.000E+00	 0.000E+00	 0.000E+00	 0.000E+00	 0.000E+00	 0.000E+00	 0.000E+00	 0.000E+00	 0.000E+00	 0.000E+00	|	 0.000E+00	 0.000E+00	 0.000E+00	|	 0.000E+00
 4.532E-08	|	          	|	 0.000E+00	 0.000E+00	 0.000E+00	 0.000E+00	 0.000E+00	 0.000E+00	 0.000E+00	 0.000E+00	 1.000E+00	 0.000E+00	 0.000E+00	 0.000E+00	|	 0.000E+00	 0.000E+00	 0.000E+00	|	 0.000E+00
 1.174E+03	|	          	|	 0.000E+00	 0.000E+00	 0.000E+00	 0.000E+00	 0.000E+00	 0.000E+00	 0.000E+00	 9.263E+02	 0.000E+00	 0.000E+00	 0.000E+00	 0.000E+00	|	 0.000E+00	 0.000E+00	 0.000E+00	|	 0.000E+00
 2.016E-04	|	          	|	-4.435E+00	-3.012E-02	-8.566E+00	 1.835E-01	 6.082E-02	 9.178E-02	-5.022E-02	-4.312E-02	-1.043E-01	 8.351E-03	 3.239E-03	 4.085E-03	|	 2.264E-02	-7.545E-02	 1.921E-01	|	 4.229E-02
 1.309E-04	|	          	|	 0.000E+00	 0.000E+00	 0.000E+00	 0.000E+00	 0.000E+00	 0.000E+00	 1.000E+00	 0.000E+00	 0.000E+00	 0.000E+00	 0.000E+00	 0.000E+00	|	 0.000E+00	 0.000E+00	 0.000E+00	|	 0.000E+00
 3.070E-01	|	          	|	 1.000E+00	 0.000E+00	 0.000E+00	 0.000E+00	 0.000E+00	 0.000E+00	 0.000E+00	 0.000E+00	 0.000E+00	 0.000E+00	 0.000E+00	 0.000E+00	|	 0.000E+00	 0.000E+00	 0.000E+00	|	 0.000E+00


--------- Azimuth =  12.00 deg (with respect to AzimB1Up =   0.00 deg) ---------
op State  	|	op        	|	A - State 	          	          	          	          	          	          	          	          	          	          	          	|	B - Input 	          	          	|	Bd - Dstrb
Derivativs	|	States    	|	Matrix    	          	          	          	          	          	          	          	          	          	          	          	|	Matrix    	          	          	|	Matrix    
 1.375E-04	|	 3.070E-01	|	 0.000E+00	 0.000E+00	 0.000E+00	 0.000E+00	 0.000E+00	 0.000E+00	 1.000E+00	 0.000E+00	 0.000E+00	 0.000E+00	 0.000E+00	 0.000E+00	|	 0.000E+00	 0.000E+00	 0.000E+00	|	 0.000E+00
 1.267E+00	|	 4.917E+00	|	 0.000E+00	 0.000E+00	 0.000E+00	 0.000E+00	 0.000E+00	 0.000E+00	 0.000E+00	 1.000E+00	 0.000E+00	 0.000E+00	 0.000E+00	 0.000E+00	|	 0.000E+00	 0.000E+00	 0.000E+00	|	 0.000E+00
 8.548E-09	|	 4.818E-03	|	 0.000E+00	 0.000E+00	 0.000E+00	 0.000E+00	 0.000E+00	 0.000E+00	 0.000E+00	 0.000E+00	 1.000E+00	 0.000E+00	 0.000E+00	 0.000E+00	|	 0.000E+00	 0.000E+00	 0.000E+00	|	 0.000E+00
 3.793E-01	|	 4.261E+00	|	 0.000E+00	 0.000E+00	 0.000E+00	 0.000E+00	 0.000E+00	 0.000E+00	 0.000E+00	 0.000E+00	 0.000E+00	 1.000E+00	 0.000E+00	 0.000E+00	|	 0.000E+00	 0.000E+00	 0.000E+00	|	 0.000E+00
-6.994E-02	|	 4.674E+00	|	 0.000E+00	 0.000E+00	 0.000E+00	 0.000E+00	 0.000E+00	 0.000E+00	 0.000E+00	 0.000E+00	 0.000E+00	 0.000E+00	 1.000E+00	 0.000E+00	|	 0.000E+00	 0.000E+00	 0.000E+00	|	 0.000E+00
-3.098E-01	|	 4.158E+00	|	 0.000E+00	 0.000E+00	 0.000E+00	 0.000E+00	 0.000E+00	 0.000E+00	 0.000E+00	 0.000E+00	 0.000E+00	 0.000E+00	 0.000E+00	 1.000E+00	|	 0.000E+00	 0.000E+00	 0.000E+00	|	 0.000E+00
 1.210E-04	|	 1.375E-04	|	-4.435E+00	-3.007E-02	-8.566E+00	 1.825E-01	 5.803E-02	 9.558E-02	-5.021E-02	-4.310E-02	-1.042E-01	 8.326E-03	 3.106E-03	 4.243E-03	|	 7.639E-03	-7.009E-02	 2.009E-01	|	 4.232E-02
-9.043E-06	|	 1.267E+00	|	-2.027E-10	-2.045E-09	 1.726E+02	-5.416E-09	 2.457E-09	-1.096E-09	 2.398E-09	-2.703E+00	 1.237E+00	-1.744E-10	-1.993E-10	-7.126E-10	|	 2.710E-08	-6.735E-08	 4.416E-08	|	 9.077E-09
-8.405E-07	|	 8.548E-09	|	-1.908E-02	-6.387E-05	-1.960E+02	 1.285E-02	 1.240E-02	 1.254E-02	-7.005E-03	 2.588E+00	-1.519E+00	 2.927E-04	 2.035E-04	 5.837E-05	|	 1.477E-01	 1.334E-01	 1.461E-01	|	 8.607E-03
 1.601E-01	|	 3.793E-01	|	 1.833E+01	 6.270E+00	 5.842E+02	-2.150E+01	-5.255E-01	-6.816E-01	-1.289E+01	 2.507E+01	 2.921E+01	-4.082E+00	-1.027E-02	-1.130E-02	|	-4.955E+02	-1.975E+00	-3.406E+00	|	 9.430E+00
-4.901E-01	|	-6.994E-02	|	 5.547E+00	-2.669E+00	 5.484E+02	-4.840E-01	-2.105E+01	-3.882E-01	 1.992E-01	 2.725E+01	 3.120E+01	-2.091E-02	-4.230E+00	-1.124E-02	|	-4.101E+00	-5.071E+02	-4.209E+00	|	 1.000E+01
 3.352E-01	|	-3.098E-01	|	 8.954E+00	-3.508E+00	 5.558E+02	-6.412E-01	-3.972E-01	-2.113E+01	-9.847E+00	 3.070E+01	 3.471E+01	-2.483E-02	-1.294E-02	-4.079E+00	|	-3.748E+00	-3.259E+00	-5.145E+02	|	 9.600E+00

op Output 	|	This colmn	|	C - Output	          	          	          	          	          	          	          	          	          	          	          	|	D - Trnsmt	          	          	|	Dd - DTsmt
Measurmnts	|	is blank  	|	Matrix    	          	          	          	          	          	          	          	          	          	          	          	|	Matrix    	          	          	|	Matrix    
 1.210E+01	|	          	|	 0.000E+00	 0.000E+00	 0.000E+00	 0.000E+00	 0.000E+00	 0.000E+00	 0.000E+00	 9.549E+00	 9.549E+00	 0.000E+00	 0.000E+00	 0.000E+00	|	 0.000E+00	 0.000E+00	 0.000E+00	|	 0.000E+00
 4.917E+00	|	          	|	 0.000E+00	 1.000E+00	 0.000E+00	 0.000E+00	 0.000E+00	 0.000E+00	 0.000E+00	 0.000E+00	 0.000E+00	 0.000E+00	 0.000E+00	 0.000E+00	|	 0.000E+00	 0.000E+00	 0.000E+00	|	 0.000E+00
 1.267E+00	|	          	|	 0.000E+00	 0.000E+00	 0.000E+00	 0.000E+00	 0.000E+00	 0.000E+00	 0.000E+00	 1.000E+00	 0.000E+00	 0.000E+00	 0.000E+00	 0.000E+00	|	 0.000E+00	 0.000E+00	 0.000E+00	|	 0.000E+00
 4.818E-03	|	          	|	 0.000E+00	 0.000E+00	 1.000E+00	 0.000E+00	 0.000E+00	 0.000E+00	 0.000E+00	 0.000E+00	 0.000E+00	 0.000E+00	 0.000E+00	 0.000E+00	|	 0.000E+00	 0.000E+00	 0.000E+00	|	 0.000E+00
 8.548E-09	|	          	|	 0.000E+00	 0.000E+00	 0.000E+00	 0.000E+00	 0.000E+00	 0.000E+00	 0.000E+00	 0.000E+00	 1.000E+00	 0.000E+00	 0.000E+00	 0.000E+00	|	 0.000E+00	 0.000E+00	 0.000E+00	|	 0.000E+00
 1.174E+03	|	          	|	 0.000E+00	 0.000E+00	 0.000E+00	 0.000E+00	 0.000E+00	 0.000E+00	 0.000E+00	 9.263E+02	 0.000E+00	 0.000E+00	 0.000E+00	 0.000E+00	|	 0.000E+00	 0.000E+00	 0.000E+00	|	 0.000E+00
 1.214E-04	|	          	|	-4.435E+00	-3.007E-02	-8.566E+00	 1.825E-01	 5.803E-02	 9.558E-02	-5.021E-02	-4.310E-02	-1.042E-01	 8.326E-03	 3.106E-03	 4.243E-03	|	 7.639E-03	-7.009E-02	 2.009E-01	|	 4.232E-02
 1.375E-04	|	          	|	 0.000E+00	 0.000E+00	 0.000E+00	 0.000E+00	 0.000E+00	 0.000E+00	 1.000E+00	 0.000E+00	 0.000E+00	 0.000E+00	 0.000E+00	 0.000E+00	|	 0.000E+00	 0.000E+00	 0.000E+00	|	 0.000E+00
 3.070E-01	|	          	|	 1.000E+00	 0.000E+00	 0.000E+00	 0.000E+00	 0.000E+00	 0.000E+00	 0.000E+00	 0.000E+00	 0.000E+00	 0.000E+00	 0.000E+00	 0.000E+00	|	 0.000E+00	 0.000E+00	 0.000E+00	|	 0.000E+00


--------- Azimuth =  15.00 deg (with respect to AzimB1Up =   0.00 deg) ---------
op State  	|	op        	|	A - State 	          	          	          	          	          	          	          	          	          	          	          	|	B - Input 	          	          	|	Bd - Dstrb
Derivativs	|	States    	|	Matrix    	          	          	          	          	          	          	          	          	          	          	          	|	Matrix    	          	          	|	Matrix    
 1.410E-04	|	 3.070E-01	|	 0.000E+00	 0.000E+00	 0.000E+00	 0.000E+00	 0.000E+00	 0.000E+00	 1.000E+00	 0.000E+00	 0.000E+00	 0.000E+00	 0.000E+00	 0.000E+00	|	 0.000E+00	 0.000E+00	 0.000E+00	|	 0.000E+00
 1.267E+00	|	 4.969E+00	|	 0.000E+00	 0.000E+00	 0.000E+00	 0.000E+00	 0.000E+00	 0.000E+00	 0.000E+00	 1.000E+00	 0.000E+00	 0.000E+00	 0.000E+00	 0.000E+00	|	 0.000E+00	 0.000E+00	 0.000E+00	|	 0.000E+00
-6.383E-09	|	 4.818E-03	|	 0.000E+00	 0.000E+00	 0.000E+00	 0.000E+00	 0.000E+00	 0.000E+00	 0.000E+00	 0.000E+00	 1.000E+00	 0.000E+00	 0.000E+00	 0.000E+00	|	 0.000E+00	 0.000E+00	 0.000E+00	|	 0.000E+00