
This linearized model file was generated by FAST (v7.02.00d-bjj, 20-Feb-2013) on 17-Oct-2017 at 12:33:50.
The aerodynamic calculations were made by AeroDyn (v13.00.02a-bjj, 20-Feb-2013).

 NREL 5.0 MW Baseline Wind Turbine for Use in Offshore Analysis.


Some Useful Information:

   Type of steady state solution found                Trimmed collective blade pitch (TrimCase = 3)
   Azimuth-average rotor speed, RotSpeed      (rad/s)    1.26711E+00
   Period of steady state solution              (sec)    4.95868E+00
   Iterations needed to find steady state solution      89
   Displacement 2-norm of steady state solution (rad)    2.05040E-05
   Velocity 2-norm of steady state solution   (rad/s)    5.48363E-06
   Number of equally-speced azimuth steps, NAzimStep   120
   Order of linearized model, MdlOrder                   1
   Number of active (enabled) DOFs                       1 ( 2 states)
   Number of control inputs, NInputs                     1
   Number of input wind disturbances, NDisturbs          0
   Number of output measurements                         2


Order of States in Linearized State Matrices:

   Row/column  1 = Variable speed generator DOF (internal DOF index = DOF_GeAz)
   Row/column  2 to  2 = First derivatives of row/column  1 to  1.


Order of Control Inputs in Linearized State Matrices:

   Column 1 = rotor collective blade pitch      (rad)    7.06209E-02 op


Order of Input Wind Disturbances in Linearized State Matrices:

   None selected


Order of Output Measurements in Linearized State Matrices:

   Row   1 = RotSpeed   (rpm)     
   Row   2 = QD_GeAz    (rad/s)   


Linearized State Matrices:

--------- Azimuth =   0.00 deg (with respect to AzimB1Up =   0.00 deg) ---------
op State  	|	op        	|	A - State 	          	|	B - Input 
Derivativs	|	States    	|	Matrix    	          	|	Matrix    
 1.267E+00	|	 4.712E+00	|	 0.000E+00	 1.000E+00	|	 0.000E+00
 4.480E-06	|	 1.267E+00	|	 4.008E-06	-3.703E-01	|	-3.944E-01

op Output 	|	This colmn	|	C - Output	          	|	D - Trnsmt
Measurmnts	|	is blank  	|	Matrix    	          	|	Matrix    
 1.210E+01	|	          	|	 0.000E+00	 9.549E+00	|	 0.000E+00
 1.267E+00	|	          	|	 0.000E+00	 1.000E+00	|	 0.000E+00


--------- Azimuth =   3.00 deg (with respect to AzimB1Up =   0.00 deg) ---------
op State  	|	op        	|	A - State 	          	|	B - Input 
Derivativs	|	States    	|	Matrix    	          	|	Matrix    
 1.267E+00	|	 4.765E+00	|	 0.000E+00	 1.000E+00	|	 0.000E+00
 4.818E-06	|	 1.267E+00	|	 9.078E-06	-3.703E-01	|	-3.944E-01

op Output 	|	This colmn	|	C - Output	          	|	D - Trnsmt
Measurmnts	|	is blank  	|	Matrix    	          	|	Matrix    
 1.210E+01	|	          	|	 0.000E+00	 9.549E+00	|	 0.000E+00
 1.267E+00	|	          	|	 0.000E+00	 1.000E+00	|	 0.000E+00


--------- Azimuth =   6.00 deg (with respect to AzimB1Up =   0.00 deg) ---------
op State  	|	op        	|	A - State 	          	|	B - Input 
Derivativs	|	States    	|	Matrix    	          	|	Matrix    
 1.267E+00	|	 4.817E+00	|	 0.000E+00	 1.000E+00	|	 0.000E+00
 5.398E-06	|	 1.267E+00	|	 9.978E-06	-3.703E-01	|	-3.944E-01

op Output 	|	This colmn	|	C - Output	          	|	D - Trnsmt
Measurmnts	|	is blank  	|	Matrix    	          	|	Matrix    
 1.210E+01	|	          	|	 0.000E+00	 9.549E+00	|	 0.000E+00
 1.267E+00	|	          	|	 0.000E+00	 1.000E+00	|	 0.000E+00


--------- Azimuth =   9.00 deg (with respect to AzimB1Up =   0.00 deg) ---------
op State  	|	op        	|	A - State 	          	|	B - Input 
Derivativs	|	States    	|	Matrix    	          	|	Matrix    
 1.267E+00	|	 4.869E+00	|	 0.000E+00	 1.000E+00	|	 0.000E+00
 5.720E-06	|	 1.267E+00	|	 6.216E-06	-3.702E-01	|	-3.945E-01

op Output 	|	This colmn	|	C - Output	          	|	D - Trnsmt
Measurmnts	|	is blank  	|	Matrix    	          	|	Matrix    
 1.210E+01	|	          	|	 0.000E+00	 9.549E+00	|	 0.000E+00
 1.267E+00	|	          	|	 0.000E+00	 1.000E+00	|	 0.000E+00


--------- Azimuth =  12.00 deg (with respect to AzimB1Up =   0.00 deg) ---------
op State  	|	op        	|	A - State 	          	|	B - Input 
Derivativs	|	States    	|	Matrix    	          	|	Matrix    
 1.267E+00	|	 4.922E+00	|	 0.000E+00	 1.000E+00	|	 0.000E+00
 6.001E-06	|	 1.267E+00	|	 5.889E-06	-3.703E-01	|	-3.947E-01

op Output 	|	This colmn	|	C - Output	          	|	D - Trnsmt
Measurmnts	|	is blank  	|	Matrix    	          	|	Matrix    
 1.210E+01	|	          	|	 0.000E+00	 9.549E+00	|	 0.000E+00
 1.267E+00	|	          	|	 0.000E+00	 1.000E+00	|	 0.000E+00


--------- Azimuth =  15.00 deg (with respect to AzimB1Up =   0.00 deg) ---------
op State  	|	op        	|	A - State 	          	|	B - Input 
Derivativs	|	States    	|	Matrix    	          	|	Matrix    
 1.267E+00	|	 4.974E+00	|	 0.000E+00	 1.000E+00	|	 0.000E+00
 6.344E-06	|	 1.267E+00	|	 8.915E-06	-3.703E-01	|	-3.947E-01

op Output 	|	This colmn	|	C - Output	          	|	D - Trnsmt
Measurmnts	|	is blank  	|	Matrix    	          	|	Matrix    
 1.210E+01	|	          	|	 0.000E+00	 9.549E+00	|	 0.000E+00
 1.267E+00	|	          	|	 0.000E+00	 1.000E+00	|	 0.000E+00


--------- Azimuth =  18.00 deg (with respect to AzimB1Up =   0.00 deg) ---------
op State  	|	op        	|	A - State 	          	|	B - Input 
Derivativs	|	States    	|	Matrix    	          	|	Matrix    
 1.267E+00	|	 5.027E+00	|	 0.000E+00	 1.000E+00	|	 0.000E+00
 6.795E-06	|	 1.267E+00	|	 1.104E-05	-3.703E-01	|	-3.947E-01

op Output 	|	This colmn	|	C - Output	          	|	D - Trnsmt
Measurmnts	|	is blank  	|	Matrix    	          	|	Matrix    
 1.210E+01	|	          	|	 0.000E+00	 9.549E+00	|	 0.000E+00
 1.267E+00	|	          	|	 0.000E+00	 1.000E+00	|	 0.000E+00


--------- Azimuth =  21.00 deg (with respect to AzimB1Up =   0.00 deg) ---------
op State  	|	op        	|	A - State 	          	|	B - Input 
Derivativs	|	States    	|	Matrix    	          	|	Matrix    
 1.267E+00	|	 5.079E+00	|	 0.000E+00	 1.000E+00	|	 0.000E+00
 8.213E-06	|	 1.267E+00	|	 2.486E-05	-3.703E-01	|	-3.947E-01

op Output 	|	This colmn	|	C - Output	          	|	D - Trnsmt
Measurmnts	|	is blank  	|	Matrix    	          	|	Matrix    
 1.210E+01	|	          	|	 0.000E+00	 9.549E+00	|	 0.000E+00
 1.267E+00	|	          	|	 0.000E+00	 1.000E+00	|	 0.000E+00


--------- Azimuth =  24.00 deg (with respect to AzimB1Up =   0.00 deg) ---------
op State  	|	op        	|	A - State 	          	|	B - Input 
Derivativs	|	States    	|	Matrix    	          	|	Matrix    
 1.267E+00	|	 5.131E+00	|	 0.000E+00	 1.000E+00	|	 0.000E+00
 9.036E-06	|	 1.267E+00	|	 1.922E-05	-3.703E-01	|	-3.945E-01

op Output 	|	This colmn	|	C - Output	          	|	D - Trnsmt
Measurmnts	|	is blank  	|	Matrix    	          	|	Matrix    
 1.210E+01	|	          	|	 0.000E+00	 9.549E+00	|	 0.000E+00
 1.267E+00	|	          	|	 0.000E+00	 1.000E+00	|	 0.000E+00


--------- Azimuth =  27.00 deg (with respect to AzimB1Up =   0.00 deg) ---------
op State  	|	op        	|	A - State 	          	|	B - Input 
Derivativs	|	States    	|	Matrix    	          	|	Matrix    
 1.267E+00	|	 5.184E+00	|	 0.000E+00	 1.000E+00	|	 0.000E+00
 9.781E-06	|	 1.267E+00	|	 6.952E-06	-3.703E-01	|	-3.944E-01

op Output 	|	This colmn	|	C - Output	          	|	D - Trnsmt
Measurmnts	|	is blank  	|	Matrix    	          	|	Matrix    
 1.210E+01	|	          	|	 0.000E+00	 9.549E+00	|	 0.000E+00
 1.267E+00	|	          	|	 0.000E+00	 1.000E+00	|	 0.000E+00


--------- Azimuth =  30.00 deg (with respect to AzimB1Up =   0.00 deg) ---------
op State  	|	op        	|	A - State 	          	|	B - Input 
Derivativs	|	States    	|	Matrix    	          	|	Matrix    
 1.267E+00	|	 5.236E+00	|	 0.000E+00	 1.000E+00	|	 0.000E+00
 9.816E-06	|	 1.267E+00	|	 2.126E-06	-3.703E-01	|	-3.944E-01

op Output 	|	This colmn	|	C - Output	          	|	D - Trnsmt
Measurmnts	|	is blank  	|	Matrix    	          	|	Matrix    
 1.210E+01	|	          	|	 0.000E+00	 9.549E+00	|	 0.000E+00
 1.267E+00	|	          	|	 0.000E+00	 1.000E+00	|	 0.000E+00


--------- Azimuth =  33.00 deg (with respect to AzimB1Up =   0.00 deg) ---------
op State  	|	op        	|	A - State 	          	|	B - Input 
Derivativs	|	States    	|	Matrix    	          	|	Matrix    
 1.267E+00	|	 5.288E+00	|	 0.000E+00	 1.000E+00	|	 0.000E+00
 9.963E-06	|	 1.267E+00	|	-4.580E-06	-3.703E-01	|	-3.944E-01

op Output 	|	This colmn	|	C - Output	          	|	D - Trnsmt
Measurmnts	|	is blank  	|	Matrix    	          	|	Matrix    
 1.210E+01	|	          	|	 0.000E+00	 9.549E+00	|	 0.000E+00
 1.267E+00	|	          	|	 0.000E+00	 1.000E+00	|	 0.000E+00


--------- Azimuth =  36.00 deg (with respect to AzimB1Up =   0.00 deg) ---------
op State  	|	op        	|	A - State 	          	|	B - Input 
Derivativs	|	States    	|	Matrix    	          	|	Matrix    
 1.267E+00	|	 5.341E+00	|	 0.000E+00	 1.000E+00	|	 0.000E+00
 9.258E-06	|	 1.267E+00	|	-1.325E-05	-3.703E-01	|	-3.945E-01

op Output 	|	This colmn	|	C - Output	          	|	D - Trnsmt
Measurmnts	|	is blank  	|	Matrix    	          	|	Matrix    
 1.210E+01	|	          	|	 0.000E+00	 9.549E+00	|	 0.000E+00
 1.267E+00	|	          	|	 0.000E+00	 1.000E+00	|	 0.000E+00


--------- Azimuth =  39.00 deg (with respect to AzimB1Up =   0.00 deg) ---------
op State  	|	op        	|	A - State 	          	|	B - Input 
Derivativs	|	States    	|	Matrix    	          	|	Matrix    
 1.267E+00	|	 5.393E+00	|	 0.000E+00	 1.000E+00	|	 0.000E+00
 8.607E-06	|	 1.267E+00	|	-1.047E-05	-3.703E-01	|	-3.947E-01

op Output 	|	This colmn	|	C - Output	          	|	D - Trnsmt
Measurmnts	|	is blank  	|	Matrix    	          	|	Matrix    
 1.210E+01	|	          	|	 0.000E+00	 9.549E+00	|	 0.000E+00
 1.267E+00	|	          	|	 0.000E+00	 1.000E+00	|	 0.000E+00


--------- Azimuth =  42.00 deg (with respect to AzimB1Up =   0.00 deg) ---------
op State  	|	op        	|	A - State 	          	|	B - Input 
Derivativs	|	States    	|	Matrix    	          	|	Matrix    
 1.267E+00	|	 5.445E+00	|	 0.000E+00	 1.000E+00	|	 0.000E+00
 8.177E-06	|	 1.267E+00	|	-4.089E-06	-3.703E-01	|	-3.947E-01

op Output 	|	This colmn	|	C - Output	          	|	D - Trnsmt
Measurmnts	|	is blank  	|	Matrix    	          	|	Matrix    
 1.210E+01	|	          	|	 0.000E+00	 9.549E+00	|	 0.000E+00
 1.267E+00	|	          	|	 0.000E+00	 1.000E+00	|	 0.000E+00


--------- Azimuth =  45.00 deg (with respect to AzimB1Up =   0.00 deg) ---------
op State  	|	op        	|	A - State 	          	|	B - Input 
Derivativs	|	States    	|	Matrix    	          	|	Matrix    
 1.267E+00	|	 5.498E+00	|	 0.000E+00	 1.000E+00	|	 0.000E+00
 8.091E-06	|	 1.267E+00	|	-1.063E-06	-3.703E-01	|	-3.948E-01

op Output 	|	This colmn	|	C - Output	          	|	D - Trnsmt
Measurmnts	|	is blank  	|	Matrix    	          	|	Matrix    
 1.210E+01	|	          	|	 0.000E+00	 9.549E+00	|	 0.000E+00
 1.267E+00	|	          	|	 0.000E+00	 1.000E+00	|	 0.000E+00


--------- Azimuth =  48.00 deg (with respect to AzimB1Up =   0.00 deg) ---------
op State  	|	op        	|	A - State 	          	|	B - Input 
Derivativs	|	States    	|	Matrix    	          	|	Matrix    
 1.267E+00	|	 5.550E+00	|	 0.000E+00	 1.000E+00	|	 0.000E+00
 8.012E-06	|	 1.267E+00	|	-8.179E-06	-3.703E-01	|	-3.948E-01

op Output 	|	This colmn	|	C - Output	          	|	D - Trnsmt
Measurmnts	|	is blank  	|	Matrix    	          	|	Matrix    
 1.210E+01	|	          	|	 0.000E+00	 9.549E+00	|	 0.000E+00
 1.267E+00	|	          	|	 0.000E+00	 1.000E+00	|	 0.000E+00


--------- Azimuth =  51.00 deg (with respect to AzimB1Up =   0.00 deg) ---------
op State  	|	op        	|	A - State 	          	|	B - Input 
Derivativs	|	States    	|	Matrix    	          	|	Matrix    
 1.267E+00	|	 5.603E+00	|	 0.000E+00	 1.000E+00	|	 0.000E+00
 7.557E-06	|	 1.267E+00	|	 8.506E-06	-3.703E-01	|	-3.948E-01

op Output 	|	This colmn	|	C - Output	          	|	D - Trnsmt
Measurmnts	|	is blank  	|	Matrix    	          	|	Matrix    
 1.210E+01	|	          	|	 0.000E+00	 9.549E+00	|	 0.000E+00
 1.267E+00	|	          	|	 0.000E+00	 1.000E+00	|	 0.000E+00


--------- Azimuth =  54.00 deg (with respect to AzimB1Up =   0.00 deg) ---------
op State  	|	op        	|	A - State 	          	|	B - Input 
Derivativs	|	States    	|	Matrix    	          	|	Matrix    
 1.267E+00	|	 5.655E+00	|	 0.000E+00	 1.000E+00	|	 0.000E+00
 8.028E-06	|	 1.267E+00	|	 5.234E-06	-3.703E-01	|	-3.949E-01

op Output 	|	This colmn	|	C - Output	          	|	D - Trnsmt
Measurmnts	|	is blank  	|	Matrix    	          	|	Matrix    
 1.210E+01	|	          	|	 0.000E+00	 9.549E+00	|	 0.000E+00
 1.267E+00	|	          	|	 0.000E+00	 1.000E+00	|	 0.000E+00


--------- Azimuth =  57.00 deg (with respect to AzimB1Up =   0.00 deg) ---------
op State  	|	op        	|	A - State 	          	|	B - Input 
Derivativs	|	States    	|	Matrix    	          	|	Matrix    
 1.267E+00	|	 5.707E+00	|	 0.000E+00	 1.000E+00	|	 0.000E+00
 8.055E-06	|	 1.267E+00	|	 2.045E-06	-3.704E-01	|	-3.948E-01

op Output 	|	This colmn	|	C - Output	          	|	D - Trnsmt
Measurmnts	|	is blank  	|	Matrix    	          	|	Matrix    
 1.210E+01	|	          	|	 0.000E+00	 9.549E+00	|	 0.000E+00
 1.267E+00	|	          	|	 0.000E+00	 1.000E+00	|	 0.000E+00


--------- Azimuth =  60.00 deg (with respect to AzimB1Up =   0.00 deg) ---------
op State  	|	op        	|	A - State 	          	|	B - Input 
Derivativs	|	States    	|	Matrix    	          	|	Matrix    
 1.267E+00	|	 5.760E+00	|	 0.000E+00	 1.000E+00	|	 0.000E+00
 8.206E-06	|	 1.267E+00	|	-3.271E-07	-3.704E-01	|	-3.947E-01

op Output 	|	This colmn	|	C - Output	          	|	D - Trnsmt
Measurmnts	|	is blank  	|	Matrix    	          	|	Matrix    
 1.210E+01	|	          	|	 0.000E+00	 9.549E+00	|	 0.000E+00
 1.267E+00	|	          	|	 0.000E+00	 1.000E+00	|	 0.000E+00


--------- Azimuth =  63.00 deg (with respect to AzimB1Up =   0.00 deg) ---------
op State  	|	op        	|	A - State 	          	|	B - Input 
Derivativs	|	States    	|	Matrix    	          	|	Matrix    
 1.267E+00	|	 5.812E+00	|	 0.000E+00	 1.000E+00	|	 0.000E+00
 7.611E-06	|	 1.267E+00	|	-2.020E-05	-3.704E-01	|	-3.947E-01

op Output 	|	This colmn	|	C - Output	          	|	D - Trnsmt
Measurmnts	|	is blank  	|	Matrix    	          	|	Matrix    
 1.210E+01	|	          	|	 0.000E+00	 9.549E+00	|	 0.000E+00
 1.267E+00	|	          	|	 0.000E+00	 1.000E+00	|	 0.000E+00


--------- Azimuth =  66.00 deg (with respect to AzimB1Up =   0.00 deg) ---------
op State  	|	op        	|	A - State 	          	|	B - Input 
Derivativs	|	States    	|	Matrix    	          	|	Matrix    
 1.267E+00	|	 5.864E+00	|	 0.000E+00	 1.000E+00	|	 0.000E+00
 6.372E-06	|	 1.267E+00	|	-1.906E-05	-3.704E-01	|	-3.947E-01

op Output 	|	This colmn	|	C - Output	          	|	D - Trnsmt
Measurmnts	|	is blank  	|	Matrix    	          	|	Matrix    
 1.210E+01	|	          	|	 0.000E+00	 9.549E+00	|	 0.000E+00
 1.267E+00	|	          	|	 0.000E+00	 1.000E+00	|	 0.000E+00


--------- Azimuth =  69.00 deg (with respect to AzimB1Up =   0.00 deg) ---------
op State  	|	op        	|	A - State 	          	|	B - Input 
Derivativs	|	States    	|	Matrix    	          	|	Matrix    
 1.267E+00	|	 5.917E+00	|	 0.000E+00	 1.000E+00	|	 0.000E+00
 5.512E-06	|	 1.267E+00	|	-1.374E-05	-3.704E-01	|	-3.947E-01

op Output 	|	This colmn	|	C - Output	          	|	D - Trnsmt
Measurmnts	|	is blank  	|	Matrix    	          	|	Matrix    
 1.210E+01	|	          	|	 0.000E+00	 9.549E+00	|	 0.000E+00
 1.267E+00	|	          	|	 0.000E+00	 1.000E+00	|	 0.000E+00


--------- Azimuth =  72.00 deg (with respect to AzimB1Up =   0.00 deg) ---------
op State  	|	op        	|	A - State 	          	|	B - Input 
Derivativs	|	States    	|	Matrix    	          	|	Matrix    
 1.267E+00	|	 5.969E+00	|	 0.000E+00	 1.000E+00	|	 0.000E+00
 4.864E-06	|	 1.267E+00	|	-1.333E-05	-3.704E-01	|	-3.949E-01

op Output 	|	This colmn	|	C - Output	          	|	D - Trnsmt
Measurmnts	|	is blank  	|	Matrix    	          	|	Matrix    
 1.210E+01	|	          	|	 0.000E+00	 9.549E+00	|	 0.000E+00
 1.267E+00	|	          	|	 0.000E+00	 1.000E+00	|	 0.000E+00


--------- Azimuth =  75.00 deg (with respect to AzimB1Up =   0.00 deg) ---------
op State  	|	op        	|	A - State 	          	|	B - Input 
Derivativs	|	States    	|	Matrix    	          	|	Matrix    
 1.267E+00	|	 6.021E+00	|	 0.000E+00	 1.000E+00	|	 0.000E+00
 4.106E-06	|	 1.267E+00	|	-1.431E-05	-3.705E-01	|	-3.949E-01

op Output 	|	This colmn	|	C - Output	          	|	D - Trnsmt
Measurmnts	|	is blank  	|	Matrix    	          	|	Matrix    
 1.210E+01	|	          	|	 0.000E+00	 9.549E+00	|	 0.000E+00
 1.267E+00	|	          	|	 0.000E+00	 1.000E+00	|	 0.000E+00


--------- Azimuth =  78.00 deg (with respect to AzimB1Up =   0.00 deg) ---------
op State  	|	op        	|	A - State 	          	|	B - Input 
Derivativs	|	States    	|	Matrix    	          	|	Matrix    
 1.267E+00	|	 6.074E+00	|	 0.000E+00	 1.000E+00	|	 0.000E+00
 3.424E-06	|	 1.267E+00	|	-8.669E-06	-3.705E-01	|	-3.950E-01

op Output 	|	This colmn	|	C - Output	          	|	D - Trnsmt
Measurmnts	|	is blank  	|	Matrix    	          	|	Matrix    
 1.210E+01	|	          	|	 0.000E+00	 9.549E+00	|	 0.000E+00
 1.267E+00	|	          	|	 0.000E+00	 1.000E+00	|	 0.000E+00


--------- Azimuth =  81.00 deg (with respect to AzimB1Up =   0.00 deg) ---------
op State  	|	op        	|	A - State 	          	|	B - Input 
Derivativs	|	States    	|	Matrix    	          	|	Matrix    
 1.267E+00	|	 6.126E+00	|	 0.000E+00	 1.000E+00	|	 0.000E+00
 3.112E-06	|	 1.267E+00	|	-4.825E-06	-3.704E-01	|	-3.950E-01

op Output 	|	This colmn	|	C - Output	          	|	D - Trnsmt
Measurmnts	|	is blank  	|	Matrix    	          	|	Matrix    
 1.210E+01	|	          	|	 0.000E+00	 9.549E+00	|	 0.000E+00
 1.267E+00	|	          	|	 0.000E+00	 1.000E+00	|	 0.000E+00


--------- Azimuth =  84.00 deg (with respect to AzimB1Up =   0.00 deg) ---------
op State  	|	op        	|	A - State 	          	|	B - Input 
Derivativs	|	States    	|	Matrix    	          	|	Matrix    
 1.267E+00	|	 6.178E+00	|	 0.000E+00	 1.000E+00	|	 0.000E+00
 2.814E-06	|	 1.267E+00	|	-6.625E-06	-3.704E-01	|	-3.950E-01

op Output 	|	This colmn	|	C - Output	          	|	D - Trnsmt
Measurmnts	|	is blank  	|	Matrix    	          	|	Matrix    
 1.210E+01	|	          	|	 0.000E+00	 9.549E+00	|	 0.000E+00
 1.267E+00	|	          	|	 0.000E+00	 1.000E+00	|	 0.000E+00


--------- Azimuth =  87.00 deg (with respect to AzimB1Up =   0.00 deg) ---------
op State  	|	op        	|	A - State 	          	|	B - Input 
Derivativs	|	States    	|	Matrix    	          	|	Matrix    
 1.267E+00	|	 6.231E+00	|	 0.000E+00	 1.000E+00	|	 0.000E+00
 2.472E-06	|	 1.267E+00	|	-5.807E-06	-3.704E-01	|	-3.949E-01

op Output 	|	This colmn	|	C - Output	          	|	D - Trnsmt
Measurmnts	|	is blank  	|	Matrix    	          	|	Matrix    
 1.210E+01	|	          	|	 0.000E+00	 9.549E+00	|	 0.000E+00
 1.267E+00	|	          	|	 0.000E+00	 1.000E+00	|	 0.000E+00


--------- Azimuth =  90.00 deg (with respect to AzimB1Up =   0.00 deg) ---------
op State  	|	op        	|	A - State 	          	|	B - Input 
Derivativs	|	States    	|	Matrix    	          	|	Matrix    
 1.267E+00	|	 0.000E+00	|	 0.000E+00	 1.000E+00	|	 0.000E+00
 2.330E-06	|	 1.267E+00	|	-2.045E-06	-3.704E-01	|	-3.949E-01

op Output 	|	This colmn	|	C - Output	          	|	D - Trnsmt
Measurmnts	|	is blank  	|	Matrix    	          	|	Matrix    
 1.210E+01	|	          	|	 0.000E+00	 9.549E+00	|	 0.000E+00
 1.267E+00	|	          	|	 0.000E+00	 1.000E+00	|	 0.000E+00


--------- Azimuth =  93.00 deg (with respect to AzimB1Up =   0.00 deg) ---------
op State  	|	op        	|	A - State 	          	|	B - Input 
Derivativs	|	States    	|	Matrix    	          	|	Matrix    
 1.267E+00	|	 5.236E-02	|	 0.000E+00	 1.000E+00	|	 0.000E+00
 2.172E-06	|	 1.267E+00	|	-2.454E-06	-3.704E-01	|	-3.949E-01

op Output 	|	This colmn	|	C - Output	          	|	D - Trnsmt
Measurmnts	|	is blank  	|	Matrix    	          	|	Matrix    
 1.210E+01	|	          	|	 0.000E+00	 9.549E+00	|	 0.000E+00
 1.267E+00	|	          	|	 0.000E+00	 1.000E+00	|	 0.000E+00


--------- Azimuth =  96.00 deg (with respect to AzimB1Up =   0.00 deg) ---------
op State  	|	op        	|	A - State 	          	|	B - Input 
Derivativs	|	States    	|	Matrix    	          	|	Matrix    
 1.267E+00	|	 1.047E-01	|	 0.000E+00	 1.000E+00	|	 0.000E+00
 2.155E-06	|	 1.267E+00	|	 4.089E-07	-3.704E-01	|	-3.949E-01

op Output 	|	This colmn	|	C - Output	          	|	D - Trnsmt
Measurmnts	|	is blank  	|	Matrix    	          	|	Matrix    
 1.210E+01	|	          	|	 0.000E+00	 9.549E+00	|	 0.000E+00
 1.267E+00	|	          	|	 0.000E+00	 1.000E+00	|	 0.000E+00


--------- Azimuth =  99.00 deg (with respect to AzimB1Up =   0.00 deg) ---------
op State  	|	op        	|	A - State 	          	|	B - Input 
Derivativs	|	States    	|	Matrix    	          	|	Matrix    
 1.267E+00	|	 1.571E-01	|	 0.000E+00	 1.000E+00	|	 0.000E+00
 2.303E-06	|	 1.267E+00	|	 4.825E-06	-3.704E-01	|	-3.948E-01

op Output 	|	This colmn	|	C - Output	          	|	D - Trnsmt
Measurmnts	|	is blank  	|	Matrix    	          	|	Matrix    
 1.210E+01	|	          	|	 0.000E+00	 9.549E+00	|	 0.000E+00
 1.267E+00	|	          	|	 0.000E+00	 1.000E+00	|	 0.000E+00


--------- Azimuth = 102.00 deg (with respect to AzimB1Up =   0.00 deg) ---------
op State  	|	op        	|	A - State 	          	|	B - Input 
Derivativs	|	States    	|	Matrix    	          	|	Matrix    
 1.267E+00	|	 2.094E-01	|	 0.000E+00	 1.000E+00	|	 0.000E+00
 2.635E-06	|	 1.267E+00	|	 1.022E-05	-3.704E-01	|	-3.947E-01

op Output 	|	This colmn	|	C - Output	          	|	D - Trnsmt
Measurmnts	|	is blank  	|	Matrix    	          	|	Matrix    
 1.210E+01	|	          	|	 0.000E+00	 9.549E+00	|	 0.000E+00
 1.267E+00	|	          	|	 0.000E+00	 1.000E+00	|	 0.000E+00


--------- Azimuth = 105.00 deg (with respect to AzimB1Up =   0.00 deg) ---------
op State  	|	op        	|	A - State 	          	|	B - Input 
Derivativs	|	States    	|	Matrix    	          	|	Matrix    
 1.267E+00	|	 2.618E-01	|	 0.000E+00	 1.000E+00	|	 0.000E+00
 3.343E-06	|	 1.267E+00	|	 1.472E-05	-3.704E-01	|	-3.945E-01

op Output 	|	This colmn	|	C - Output	          	|	D - Trnsmt
Measurmnts	|	is blank  	|	Matrix    	          	|	Matrix    
 1.210E+01	|	          	|	 0.000E+00	 9.549E+00	|	 0.000E+00
 1.267E+00	|	          	|	 0.000E+00	 1.000E+00	|	 0.000E+00


--------- Azimuth = 108.00 deg (with respect to AzimB1Up =   0.00 deg) ---------
op State  	|	op        	|	A - State 	          	|	B - Input 
Derivativs	|	States    	|	Matrix    	          	|	Matrix    
 1.267E+00	|	 3.142E-01	|	 0.000E+00	 1.000E+00	|	 0.000E+00
 4.123E-06	|	 1.267E+00	|	 1.276E-05	-3.704E-01	|	-3.944E-01

op Output 	|	This colmn	|	C - Output	          	|	D - Trnsmt
Measurmnts	|	is blank  	|	Matrix    	          	|	Matrix    
 1.210E+01	|	          	|	 0.000E+00	 9.549E+00	|	 0.000E+00
 1.267E+00	|	          	|	 0.000E+00	 1.000E+00	|	 0.000E+00


--------- Azimuth = 111.00 deg (with respect to AzimB1Up =   0.00 deg) ---------
op State  	|	op        	|	A - State 	          	|	B - Input 
Derivativs	|	States    	|	Matrix    	          	|	Matrix    
 1.267E+00	|	 3.665E-01	|	 0.000E+00	 1.000E+00	|	 0.000E+00
 4.764E-06	|	 1.267E+00	|	 1.399E-05	-3.704E-01	|	-3.944E-01

op Output 	|	This colmn	|	C - Output	          	|	D - Trnsmt
Measurmnts	|	is blank  	|	Matrix    	          	|	Matrix    
 1.210E+01	|	          	|	 0.000E+00	 9.549E+00	|	 0.000E+00
 1.267E+00	|	          	|	 0.000E+00	 1.000E+00	|	 0.000E+00


--------- Azimuth = 114.00 deg (with respect to AzimB1Up =   0.00 deg) ---------
op State  	|	op        	|	A - State 	          	|	B - Input 
Derivativs	|	States    	|	Matrix    	          	|	Matrix    
 1.267E+00	|	 4.189E-01	|	 0.000E+00	 1.000E+00	|	 0.000E+00
 5.382E-06	|	 1.267E+00	|	-1.963E-06	-3.704E-01	|	-3.944E-01

op Output 	|	This colmn	|	C - Output	          	|	D - Trnsmt
Measurmnts	|	is blank  	|	Matrix    	          	|	Matrix    
 1.210E+01	|	          	|	 0.000E+00	 9.549E+00	|	 0.000E+00
 1.267E+00	|	          	|	 0.000E+00	 1.000E+00	|	 0.000E+00


--------- Azimuth = 117.00 deg (with respect to AzimB1Up =   0.00 deg) ---------
op State  	|	op        	|	A - State 	          	|	B - Input 
Derivativs	|	States    	|	Matrix    	          	|	Matrix    
 1.267E+00	|	 4.712E-01	|	 0.000E+00	 1.000E+00	|	 0.000E+00
 4.660E-06	|	 1.267E+00	|	-1.022E-05	-3.703E-01	|	-3.944E-01

op Output 	|	This colmn	|	C - Output	          	|	D - Trnsmt
Measurmnts	|	is blank  	|	Matrix    	          	|	Matrix    
 1.210E+01	|	          	|	 0.000E+00	 9.549E+00	|	 0.000E+00
 1.267E+00	|	          	|	 0.000E+00	 1.000E+00	|	 0.000E+00


--------- Azimuth = 120.00 deg (with respect to AzimB1Up =   0.00 deg) ---------
op State  	|	op        	|	A - State 	          	|	B - Input 
Derivativs	|	States    	|	Matrix    	          	|	Matrix    
 1.267E+00	|	 5.236E-01	|	 0.000E+00	 1.000E+00	|	 0.000E+00
 4.452E-06	|	 1.267E+00	|	 3.599E-06	-3.703E-01	|	-3.944E-01

op Output 	|	This colmn	|	C - Output	          	|	D - Trnsmt
Measurmnts	|	is blank  	|	Matrix    	          	|	Matrix    
 1.210E+01	|	          	|	 0.000E+00	 9.549E+00	|	 0.000E+00
 1.267E+00	|	          	|	 0.000E+00	 1.000E+00	|	 0.000E+00


--------- Azimuth = 123.00 deg (with respect to AzimB1Up =   0.00 deg) ---------
op State  	|	op        	|	A - State 	          	|	B - Input 
Derivativs	|	States    	|	Matrix    	          	|	Matrix    
 1.267E+00	|	 5.760E-01	|	 0.000E+00	 1.000E+00	|	 0.000E+00
 4.829E-06	|	 1.267E+00	|	 8.342E-06	-3.703E-01	|	-3.944E-01

op Output 	|	This colmn	|	C - Output	          	|	D - Trnsmt
Measurmnts	|	is blank  	|	Matrix    	          	|	Matrix    
 1.210E+01	|	          	|	 0.000E+00	 9.549E+00	|	 0.000E+00
 1.267E+00	|	          	|	 0.000E+00	 1.000E+00	|	 0.000E+00


--------- Azimuth = 126.00 deg (with respect to AzimB1Up =   0.00 deg) ---------
op State  	|	op        	|	A - State 	          	|	B - Input 
Derivativs	|	States    	|	Matrix    	          	|	Matrix    
 1.267E+00	|	 6.283E-01	|	 0.000E+00	 1.000E+00	|	 0.000E+00
 5.362E-06	|	 1.267E+00	|	 9.651E-06	-3.703E-01	|	-3.944E-01

op Output 	|	This colmn	|	C - Output	          	|	D - Trnsmt
Measurmnts	|	is blank  	|	Matrix    	          	|	Matrix    
 1.210E+01	|	          	|	 0.000E+00	 9.549E+00	|	 0.000E+00
 1.267E+00	|	          	|	 0.000E+00	 1.000E+00	|	 0.000E+00


--------- Azimuth = 129.00 deg (with respect to AzimB1Up =   0.00 deg) ---------
op State  	|	op        	|	A - State 	          	|	B - Input 
Derivativs	|	States    	|	Matrix    	          	|	Matrix    
 1.267E+00	|	 6.807E-01	|	 0.000E+00	 1.000E+00	|	 0.000E+00
 5.712E-06	|	 1.267E+00	|	 6.461E-06	-3.702E-01	|	-3.945E-01

op Output 	|	This colmn	|	C - Output	          	|	D - Trnsmt
Measurmnts	|	is blank  	|	Matrix    	          	|	Matrix    
 1.210E+01	|	          	|	 0.000E+00	 9.549E+00	|	 0.000E+00
 1.267E+00	|	          	|	 0.000E+00	 1.000E+00	|	 0.000E+00


--------- Azimuth = 132.00 deg (with respect to AzimB1Up =   0.00 deg) ---------
op State  	|	op        	|	A - State 	          	|	B - Input 
Derivativs	|	States    	|	Matrix    	          	|	Matrix    
 1.267E+00	|	 7.330E-01	|	 0.000E+00	 1.000E+00	|	 0.000E+00
 5.991E-06	|	 1.267E+00	|	 5.725E-06	-3.703E-01	|	-3.947E-01

op Output 	|	This colmn	|	C - Output	          	|	D - Trnsmt
Measurmnts	|	is blank  	|	Matrix    	          	|	Matrix    
 1.210E+01	|	          	|	 0.000E+00	 9.549E+00	|	 0.000E+00
 1.267E+00	|	          	|	 0.000E+00	 1.000E+00	|	 0.000E+00


--------- Azimuth = 135.00 deg (with respect to AzimB1Up =   0.00 deg) ---------
op State  	|	op        	|	A - State 	          	|	B - Input 
Derivativs	|	States    	|	Matrix    	          	|	Matrix    
 1.267E+00	|	 7.854E-01	|	 0.000E+00	 1.000E+00	|	 0.000E+00
 6.315E-06	|	 1.267E+00	|	 8.588E-06	-3.703E-01	|	-3.947E-01

op Output 	|	This colmn	|	C - Output	          	|	D - Trnsmt
Measurmnts	|	is blank  	|	Matrix    	          	|	Matrix    
 1.210E+01	|	          	|	 0.000E+00	 9.549E+00	|	 0.000E+00
 1.267E+00	|	          	|	 0.000E+00	 1.000E+00	|	 0.000E+00


--------- Azimuth = 138.00 deg (with respect to AzimB1Up =   0.00 deg) ---------
op State  	|	op        	|	A - State 	          	|	B - Input 
Derivativs	|	States    	|	Matrix    	          	|	Matrix    
 1.267E+00	|	 8.378E-01	|	 0.000E+00	 1.000E+00	|	 0.000E+00
 6.844E-06	|	 1.267E+00	|	 1.096E-05	-3.703E-01	|	-3.947E-01

op Output 	|	This colmn	|	C - Output	          	|	D - Trnsmt
Measurmnts	|	is blank  	|	Matrix    	          	|	Matrix    
 1.210E+01	|	          	|	 0.000E+00	 9.549E+00	|	 0.000E+00
 1.267E+00	|	          	|	 0.000E+00	 1.000E+00	|	 0.000E+00


--------- Azimuth = 141.00 deg (with respect to AzimB1Up =   0.00 deg) ---------
op State  	|	op        	|	A - State 	          	|	B - Input 
Derivativs	|	States    	|	Matrix    	          	|	Matrix    
 1.267E+00	|	 8.901E-01	|	 0.000E+00	 1.000E+00	|	 0.000E+00
 8.044E-06	|	 1.267E+00	|	 2.519E-05	-3.703E-01	|	-3.947E-01

op Output 	|	This colmn	|	C - Output	          	|	D - Trnsmt
Measurmnts	|	is blank  	|	Matrix    	          	|	Matrix    
 1.210E+01	|	          	|	 0.000E+00	 9.549E+00	|	 0.000E+00
 1.267E+00	|	          	|	 0.000E+00	 1.000E+00	|	 0.000E+00


--------- Azimuth = 144.00 deg (with respect to AzimB1Up =   0.00 deg) ---------
op State  	|	op        	|	A - State 	          	|	B - Input 
Derivativs	|	States    	|	Matrix    	          	|	Matrix    
 1.267E+00	|	 9.425E-01	|	 0.000E+00	 1.000E+00	|	 0.000E+00
 9.062E-06	|	 1.267E+00	|	 1.840E-05	-3.703E-01	|	-3.945E-01

op Output 	|	This colmn	|	C - Output	          	|	D - Trnsmt
Measurmnts	|	is blank  	|	Matrix    	          	|	Matrix    
 1.210E+01	|	          	|	 0.000E+00	 9.549E+00	|	 0.000E+00
 1.267E+00	|	          	|	 0.000E+00	 1.000E+00	|	 0.000E+00


--------- Azimuth = 147.00 deg (with respect to AzimB1Up =   0.00 deg) ---------
op State  	|	op        	|	A - State 	          	|	B - Input 
Derivativs	|	States    	|	Matrix    	          	|	Matrix    
 1.267E+00	|	 9.948E-01	|	 0.000E+00	 1.000E+00	|	 0.000E+00