
This linearized model file was generated by FAST (v7.02.00d-bjj, 20-Feb-2013) on 06-Jul-2018 at 11:14:03.
The aerodynamic calculations were made by AeroDyn (v13.00.02a-bjj, 20-Feb-2013).

 NREL 5.0 MW Baseline Wind Turbine for Use in Offshore Analysis.


Some Useful Information:

   Type of steady state solution found                Trimmed collective blade pitch (TrimCase = 3)
   Azimuth-average rotor speed, RotSpeed      (rad/s)    1.26711E+00
   Period of steady state solution              (sec)    4.95868E+00
   Iterations needed to find steady state solution     108
   Displacement 2-norm of steady state solution (rad)    9.68133E-05
   Velocity 2-norm of steady state solution   (rad/s)    5.53796E-06
   Number of equally-speced azimuth steps, NAzimStep   120
   Order of linearized model, MdlOrder                   2
   Number of active (enabled) DOFs                       6
   Number of control inputs, NInputs                     3
   Number of input wind disturbances, NDisturbs          1
   Number of output measurements                         9


Order of States in Linearized State Matrices:

   Row/column  1 = 1st tower fore-aft bending mode DOF (internal DOF index = DOF_TFA1)
   Row/column  2 = Variable speed generator DOF (internal DOF index = DOF_GeAz)
   Row/column  3 = Drivetrain rotational-flexibility DOF (internal DOF index = DOF_DrTr)
   Row/column  4 = 1st flapwise bending-mode DOF of blade 1 (internal DOF index = DOF_BF(1,1))
   Row/column  5 = 1st flapwise bending-mode DOF of blade 2 (internal DOF index = DOF_BF(2,1))
   Row/column  6 = 1st flapwise bending-mode DOF of blade 3 (internal DOF index = DOF_BF(3,1))


Order of Control Inputs in Linearized State Matrices:

   Column 1 = individual pitch of blade 1       (rad)    7.13157E-02 op
   Column 2 = individual pitch of blade 2       (rad)    7.13157E-02 op
   Column 3 = individual pitch of blade 3       (rad)    7.13157E-02 op


Order of Input Wind Disturbances in Linearized State Matrices:

   Column 1 = horizontal hub-height wind speed  (m/s) : See selected wind file for op


Order of Output Measurements in Linearized State Matrices:

   Row   1 = RotSpeed   (rpm)     
   Row   2 = Q_GeAz     (rad)     
   Row   3 = QD_GeAz    (rad/s)   
   Row   4 = Q_DrTr     (rad)     
   Row   5 = QD_DrTr    (rad/s)   
   Row   6 = GenSpeed   (rpm)     
   Row   7 = QD2_TFA1   (m/s^2)   
   Row   8 = QD_TFA1    (m/s)     
   Row   9 = Q_TFA1     (m)       


Linearized State Matrices:

--------- Azimuth =   0.00 deg (with respect to AzimB1Up =   0.00 deg) ---------
op        	|	op        	|	op        	|	M - Mass  	          	          	          	          	          	|	C - Damp  	          	          	          	          	          	|	K - Stiff 	          	          	          	          	          	|	F - Input 	          	          	|	Fd - Dstrb
Accleratns	|	Velocities	|	Displcmnts	|	Matrix    	          	          	          	          	          	|	Matrix    	          	          	          	          	          	|	Matrix    	          	          	          	          	          	|	Matrix    	          	          	|	Matrix    
 4.171E-04	|	 9.000E-05	|	 3.070E-01	|	 4.378E+05	 7.249E+02	 7.249E+02	 3.926E+03	 1.238E+03	 1.432E+03	|	 8.898E+04	-1.584E+05	-1.584E+05	 1.235E+04	 3.704E+03	 4.329E+03	|	 1.849E+06	-2.385E+03	-2.352E+03	 4.823E+03	-1.733E+03	-2.175E+03	|	-1.932E+06	-6.775E+05	-6.835E+05	|	 8.161E+04
-9.767E-06	|	 1.267E+00	|	 4.708E+00	|	 7.249E+02	 4.380E+07	 3.877E+07	 2.205E+04	 2.206E+04	 2.205E+04	|	 7.687E+05	 1.620E+07	 2.620E+06	 8.007E+04	 8.479E+04	 8.884E+04	|	 1.885E+04	 6.839E+02	 8.160E+02	 3.353E+02	 3.644E+03	 3.526E+03	|	-5.349E+06	-6.048E+06	-5.926E+06	|	 9.736E+05
 1.686E-06	|	-6.845E-08	|	 4.818E-03	|	 7.249E+02	 3.877E+07	 3.877E+07	 2.205E+04	 2.206E+04	 2.205E+04	|	 7.687E+05	 2.621E+06	 8.835E+06	 8.007E+04	 8.479E+04	 8.884E+04	|	 1.885E+04	 6.839E+02	 8.676E+08	 3.353E+02	 3.644E+03	 3.526E+03	|	-5.349E+06	-6.048E+06	-5.926E+06	|	 9.736E+05
 2.569E-01	|	 3.447E-01	|	 4.200E+00	|	 3.926E+03	 2.205E+04	 2.205E+04	 9.473E+02	 0.000E+00	 0.000E+00	|	 1.356E+04	-2.151E+04	-2.151E+04	 3.812E+03	-6.934E+00	-7.020E+00	|	 2.166E+02	-5.626E+03	-5.618E+03	 1.937E+04	 8.575E-02	 4.272E-02	|	-4.671E+05	 8.225E+02	 7.845E+02	|	 9.253E+03
-4.956E-01	|	 1.178E-02	|	 4.679E+00	|	 1.238E+03	 2.206E+04	 2.206E+04	 0.000E+00	 9.490E+02	 0.000E+00	|	 5.716E+02	-2.264E+04	-2.264E+04	 3.981E+00	 4.000E+03	 4.023E+00	|	-5.182E+02	 1.400E+03	 1.395E+03	 4.284E-01	 1.962E+04	-8.554E-02	|	-4.644E+02	-4.761E+05	-4.275E+02	|	 9.704E+03
 2.420E-01	|	-3.577E-01	|	 4.213E+00	|	 1.432E+03	 2.205E+04	 2.205E+04	 0.000E+00	 0.000E+00	 9.473E+02	|	 8.013E+03	-2.669E+04	-2.669E+04	 3.895E+00	 3.724E+00	 3.878E+03	|	-2.962E+02	 4.344E+03	 4.340E+03	 5.990E-01	 4.260E-02	 1.960E+04	|	-4.577E+02	-4.443E+02	-4.850E+05	|	 9.410E+03

op Output 	|	This colmn	|	This colmn	|	This matrx	          	          	          	          	          	|	VelC - Out	          	          	          	          	          	|	DspC - Out	          	          	          	          	          	|	D - Trnsmt	          	          	|	Dd - DTsmt
Measurmnts	|	is blank  	|	is blank  	|	is blank  	          	          	          	          	          	|	Matrix    	          	          	          	          	          	|	Matrix    	          	          	          	          	          	|	Matrix    	          	          	|	Matrix    
 1.210E+01	|	          	|	          	|	          	          	          	          	          	          	|	 0.000E+00	 9.549E+00	 9.549E+00	 0.000E+00	 0.000E+00	 0.000E+00	|	 0.000E+00	 0.000E+00	 0.000E+00	 0.000E+00	 0.000E+00	 0.000E+00	|	 0.000E+00	 0.000E+00	 0.000E+00	|	 0.000E+00
 4.708E+00	|	          	|	          	|	          	          	          	          	          	          	|	 0.000E+00	 0.000E+00	 0.000E+00	 0.000E+00	 0.000E+00	 0.000E+00	|	 0.000E+00	 1.000E+00	 0.000E+00	 0.000E+00	 0.000E+00	 0.000E+00	|	 0.000E+00	 0.000E+00	 0.000E+00	|	 0.000E+00
 1.267E+00	|	          	|	          	|	          	          	          	          	          	          	|	 0.000E+00	 1.000E+00	 0.000E+00	 0.000E+00	 0.000E+00	 0.000E+00	|	 0.000E+00	 0.000E+00	 0.000E+00	 0.000E+00	 0.000E+00	 0.000E+00	|	 0.000E+00	 0.000E+00	 0.000E+00	|	 0.000E+00
 4.818E-03	|	          	|	          	|	          	          	          	          	          	          	|	 0.000E+00	 0.000E+00	 0.000E+00	 0.000E+00	 0.000E+00	 0.000E+00	|	 0.000E+00	 0.000E+00	 1.000E+00	 0.000E+00	 0.000E+00	 0.000E+00	|	 0.000E+00	 0.000E+00	 0.000E+00	|	 0.000E+00
-6.845E-08	|	          	|	          	|	          	          	          	          	          	          	|	 0.000E+00	 0.000E+00	 1.000E+00	 0.000E+00	 0.000E+00	 0.000E+00	|	 0.000E+00	 0.000E+00	 0.000E+00	 0.000E+00	 0.000E+00	 0.000E+00	|	 0.000E+00	 0.000E+00	 0.000E+00	|	 0.000E+00
 1.174E+03	|	          	|	          	|	          	          	          	          	          	          	|	 0.000E+00	 9.263E+02	 0.000E+00	 0.000E+00	 0.000E+00	 0.000E+00	|	 0.000E+00	 0.000E+00	 0.000E+00	 0.000E+00	 0.000E+00	 0.000E+00	|	 0.000E+00	 0.000E+00	 0.000E+00	|	 0.000E+00
 4.174E-04	|	          	|	          	|	          	          	          	          	          	          	|	-5.022E-02	-4.348E-02	-1.046E-01	 8.386E-03	 3.658E-03	 3.635E-03	|	-4.435E+00	-3.005E-02	-8.566E+00	 1.854E-01	 6.998E-02	 8.073E-02	|	 6.832E-02	-9.236E-02	 1.659E-01	|	 4.233E-02
 9.000E-05	|	          	|	          	|	          	          	          	          	          	          	|	 1.000E+00	 0.000E+00	 0.000E+00	 0.000E+00	 0.000E+00	 0.000E+00	|	 0.000E+00	 0.000E+00	 0.000E+00	 0.000E+00	 0.000E+00	 0.000E+00	|	 0.000E+00	 0.000E+00	 0.000E+00	|	 0.000E+00
 3.070E-01	|	          	|	          	|	          	          	          	          	          	          	|	 0.000E+00	 0.000E+00	 0.000E+00	 0.000E+00	 0.000E+00	 0.000E+00	|	 1.000E+00	 0.000E+00	 0.000E+00	 0.000E+00	 0.000E+00	 0.000E+00	|	 0.000E+00	 0.000E+00	 0.000E+00	|	 0.000E+00


--------- Azimuth =   3.00 deg (with respect to AzimB1Up =   0.00 deg) ---------
op        	|	op        	|	op        	|	M - Mass  	          	          	          	          	          	|	C - Damp  	          	          	          	          	          	|	K - Stiff 	          	          	          	          	          	|	F - Input 	          	          	|	Fd - Dstrb
Accleratns	|	Velocities	|	Displcmnts	|	Matrix    	          	          	          	          	          	|	Matrix    	          	          	          	          	          	|	Matrix    	          	          	          	          	          	|	Matrix    	          	          	|	Matrix    
 3.527E-04	|	 1.059E-04	|	 3.070E-01	|	 4.378E+05	 7.255E+02	 7.255E+02	 3.918E+03	 1.164E+03	 1.515E+03	|	 8.901E+04	-1.585E+05	-1.585E+05	 1.234E+04	 3.454E+03	 4.597E+03	|	 1.849E+06	-2.332E+03	-2.299E+03	 4.833E+03	-1.928E+03	-1.989E+03	|	-1.932E+06	-6.386E+05	-7.217E+05	|	 8.159E+04
-9.952E-06	|	 1.267E+00	|	 4.760E+00	|	 7.255E+02	 4.380E+07	 3.877E+07	 2.205E+04	 2.206E+04	 2.205E+04	|	 7.688E+05	 1.620E+07	 2.619E+06	 7.997E+04	 8.509E+04	 8.869E+04	|	 1.885E+04	 7.590E+02	 3.050E+02	 3.323E+02	 3.709E+03	 3.454E+03	|	-5.352E+06	-6.069E+06	-5.908E+06	|	 9.736E+05
 1.418E-06	|	-2.174E-09	|	 4.818E-03	|	 7.255E+02	 3.877E+07	 3.877E+07	 2.205E+04	 2.206E+04	 2.205E+04	|	 7.688E+05	 2.620E+06	 8.834E+06	 7.997E+04	 8.509E+04	 8.869E+04	|	 1.885E+04	 7.590E+02	 8.676E+08	 3.323E+02	 3.709E+03	 3.454E+03	|	-5.352E+06	-6.069E+06	-5.908E+06	|	 9.736E+05
 2.335E-01	|	 3.548E-01	|	 4.215E+00	|	 3.918E+03	 2.205E+04	 2.205E+04	 9.473E+02	 0.000E+00	 0.000E+00	|	 1.333E+04	-2.139E+04	-2.139E+04	 3.816E+03	-6.977E+00	-7.062E+00	|	 2.113E+02	-5.699E+03	-5.691E+03	 1.937E+04	 8.563E-02	-4.279E-02	|	-4.668E+05	 8.203E+02	 7.845E+02	|	 9.260E+03
-4.961E-01	|	-8.709E-03	|	 4.679E+00	|	 1.164E+03	 2.206E+04	 2.206E+04	 0.000E+00	 9.490E+02	 0.000E+00	|	 4.028E+02	-2.280E+04	-2.280E+04	 4.366E+00	 4.002E+03	 4.366E+00	|	-5.365E+02	 1.698E+03	 1.692E+03	 5.136E-01	 1.963E+04	-1.283E-01	|	-5.081E+02	-4.766E+05	-4.689E+02	|	 9.710E+03
 2.664E-01	|	-3.472E-01	|	 4.198E+00	|	 1.515E+03	 2.205E+04	 2.205E+04	 0.000E+00	 0.000E+00	 9.473E+02	|	 8.408E+03	-2.665E+04	-2.665E+04	 3.510E+00	 3.467E+00	 3.872E+03	|	-2.728E+02	 4.119E+03	 4.115E+03	 5.565E-01	 4.288E-02	 1.959E+04	|	-4.152E+02	-4.006E+02	-4.847E+05	|	 9.396E+03

op Output 	|	This colmn	|	This colmn	|	This matrx	          	          	          	          	          	|	VelC - Out	          	          	          	          	          	|	DspC - Out	          	          	          	          	          	|	D - Trnsmt	          	          	|	Dd - DTsmt
Measurmnts	|	is blank  	|	is blank  	|	is blank  	          	          	          	          	          	|	Matrix    	          	          	          	          	          	|	Matrix    	          	          	          	          	          	|	Matrix    	          	          	|	Matrix    
 1.210E+01	|	          	|	          	|	          	          	          	          	          	          	|	 0.000E+00	 9.549E+00	 9.549E+00	 0.000E+00	 0.000E+00	 0.000E+00	|	 0.000E+00	 0.000E+00	 0.000E+00	 0.000E+00	 0.000E+00	 0.000E+00	|	 0.000E+00	 0.000E+00	 0.000E+00	|	 0.000E+00
 4.760E+00	|	          	|	          	|	          	          	          	          	          	          	|	 0.000E+00	 0.000E+00	 0.000E+00	 0.000E+00	 0.000E+00	 0.000E+00	|	 0.000E+00	 1.000E+00	 0.000E+00	 0.000E+00	 0.000E+00	 0.000E+00	|	 0.000E+00	 0.000E+00	 0.000E+00	|	 0.000E+00
 1.267E+00	|	          	|	          	|	          	          	          	          	          	          	|	 0.000E+00	 1.000E+00	 0.000E+00	 0.000E+00	 0.000E+00	 0.000E+00	|	 0.000E+00	 0.000E+00	 0.000E+00	 0.000E+00	 0.000E+00	 0.000E+00	|	 0.000E+00	 0.000E+00	 0.000E+00	|	 0.000E+00
 4.818E-03	|	          	|	          	|	          	          	          	          	          	          	|	 0.000E+00	 0.000E+00	 0.000E+00	 0.000E+00	 0.000E+00	 0.000E+00	|	 0.000E+00	 0.000E+00	 1.000E+00	 0.000E+00	 0.000E+00	 0.000E+00	|	 0.000E+00	 0.000E+00	 0.000E+00	|	 0.000E+00
-2.174E-09	|	          	|	          	|	          	          	          	          	          	          	|	 0.000E+00	 0.000E+00	 1.000E+00	 0.000E+00	 0.000E+00	 0.000E+00	|	 0.000E+00	 0.000E+00	 0.000E+00	 0.000E+00	 0.000E+00	 0.000E+00	|	 0.000E+00	 0.000E+00	 0.000E+00	|	 0.000E+00
 1.174E+03	|	          	|	          	|	          	          	          	          	          	          	|	 0.000E+00	 9.263E+02	 0.000E+00	 0.000E+00	 0.000E+00	 0.000E+00	|	 0.000E+00	 0.000E+00	 0.000E+00	 0.000E+00	 0.000E+00	 0.000E+00	|	 0.000E+00	 0.000E+00	 0.000E+00	|	 0.000E+00
 3.528E-04	|	          	|	          	|	          	          	          	          	          	          	|	-5.024E-02	-4.324E-02	-1.044E-01	 8.379E-03	 3.514E-03	 3.779E-03	|	-4.435E+00	-3.012E-02	-8.566E+00	 1.850E-01	 6.680E-02	 8.434E-02	|	 5.386E-02	-8.651E-02	 1.745E-01	|	 4.229E-02
 1.059E-04	|	          	|	          	|	          	          	          	          	          	          	|	 1.000E+00	 0.000E+00	 0.000E+00	 0.000E+00	 0.000E+00	 0.000E+00	|	 0.000E+00	 0.000E+00	 0.000E+00	 0.000E+00	 0.000E+00	 0.000E+00	|	 0.000E+00	 0.000E+00	 0.000E+00	|	 0.000E+00
 3.070E-01	|	          	|	          	|	          	          	          	          	          	          	|	 0.000E+00	 0.000E+00	 0.000E+00	 0.000E+00	 0.000E+00	 0.000E+00	|	 1.000E+00	 0.000E+00	 0.000E+00	 0.000E+00	 0.000E+00	 0.000E+00	|	 0.000E+00	 0.000E+00	 0.000E+00	|	 0.000E+00


--------- Azimuth =   6.00 deg (with respect to AzimB1Up =   0.00 deg) ---------
op        	|	op        	|	op        	|	M - Mass  	          	          	          	          	          	|	C - Damp  	          	          	          	          	          	|	K - Stiff 	          	          	          	          	          	|	F - Input 	          	          	|	Fd - Dstrb
Accleratns	|	Velocities	|	Displcmnts	|	Matrix    	          	          	          	          	          	|	Matrix    	          	          	          	          	          	|	Matrix    	          	          	          	          	          	|	Matrix    	          	          	|	Matrix    
 2.799E-04	|	 1.190E-04	|	 3.070E-01	|	 4.378E+05	 7.261E+02	 7.261E+02	 3.905E+03	 1.093E+03	 1.599E+03	|	 8.903E+04	-1.586E+05	-1.586E+05	 1.230E+04	 3.213E+03	 4.868E+03	|	 1.849E+06	-2.305E+03	-2.273E+03	 4.831E+03	-2.116E+03	-1.797E+03	|	-1.931E+06	-6.011E+05	-7.607E+05	|	 8.158E+04
-9.877E-06	|	 1.267E+00	|	 4.812E+00	|	 7.261E+02	 4.380E+07	 3.877E+07	 2.205E+04	 2.206E+04	 2.205E+04	|	 7.687E+05	 1.620E+07	 2.619E+06	 7.986E+04	 8.537E+04	 8.853E+04	|	 1.886E+04	 8.773E+02	 7.770E+02	 3.374E+02	 3.786E+03	 3.387E+03	|	-5.362E+06	-6.091E+06	-5.888E+06	|	 9.737E+05
 6.385E-07	|	 4.174E-08	|	 4.818E-03	|	 7.261E+02	 3.877E+07	 3.877E+07	 2.205E+04	 2.206E+04	 2.205E+04	|	 7.687E+05	 2.619E+06	 8.834E+06	 7.986E+04	 8.537E+04	 8.853E+04	|	 1.886E+04	 8.772E+02	 8.676E+08	 3.373E+02	 3.786E+03	 3.387E+03	|	-5.362E+06	-6.091E+06	-5.888E+06	|	 9.737E+05
 2.096E-01	|	 3.640E-01	|	 4.230E+00	|	 3.905E+03	 2.205E+04	 2.205E+04	 9.474E+02	 0.000E+00	 0.000E+00	|	 1.309E+04	-2.127E+04	-2.127E+04	 3.820E+03	-6.848E+00	-7.062E+00	|	 2.050E+02	-5.757E+03	-5.748E+03	 1.937E+04	 1.285E-01	-8.563E-02	|	-4.666E+05	 8.147E+02	 7.789E+02	|	 9.269E+03
-4.953E-01	|	-2.920E-02	|	 4.679E+00	|	 1.093E+03	 2.206E+04	 2.206E+04	 0.000E+00	 9.490E+02	 0.000E+00	|	 2.532E+02	-2.296E+04	-2.296E+04	 4.665E+00	 4.004E+03	 4.708E+00	|	-5.538E+02	 1.991E+03	 1.985E+03	 5.139E-01	 1.963E+04	-4.306E-02	|	-5.494E+02	-4.772E+05	-5.058E+02	|	 9.715E+03
 2.902E-01	|	-3.356E-01	|	 4.184E+00	|	 1.599E+03	 2.205E+04	 2.205E+04	 0.000E+00	 0.000E+00	 9.472E+02	|	 8.800E+03	-2.660E+04	-2.660E+04	 3.168E+00	 3.039E+00	 3.866E+03	|	-2.493E+02	 3.882E+03	 3.879E+03	 5.137E-01	 3.052E-05	 1.959E+04	|	-3.704E+02	-3.581E+02	-4.844E+05	|	 9.383E+03

op Output 	|	This colmn	|	This colmn	|	This matrx	          	          	          	          	          	|	VelC - Out	          	          	          	          	          	|	DspC - Out	          	          	          	          	          	|	D - Trnsmt	          	          	|	Dd - DTsmt
Measurmnts	|	is blank  	|	is blank  	|	is blank  	          	          	          	          	          	|	Matrix    	          	          	          	          	          	|	Matrix    	          	          	          	          	          	|	Matrix    	          	          	|	Matrix    
 1.210E+01	|	          	|	          	|	          	          	          	          	          	          	|	 0.000E+00	 9.549E+00	 9.549E+00	 0.000E+00	 0.000E+00	 0.000E+00	|	 0.000E+00	 0.000E+00	 0.000E+00	 0.000E+00	 0.000E+00	 0.000E+00	|	 0.000E+00	 0.000E+00	 0.000E+00	|	 0.000E+00
 4.812E+00	|	          	|	          	|	          	          	          	          	          	          	|	 0.000E+00	 0.000E+00	 0.000E+00	 0.000E+00	 0.000E+00	 0.000E+00	|	 0.000E+00	 1.000E+00	 0.000E+00	 0.000E+00	 0.000E+00	 0.000E+00	|	 0.000E+00	 0.000E+00	 0.000E+00	|	 0.000E+00
 1.267E+00	|	          	|	          	|	          	          	          	          	          	          	|	 0.000E+00	 1.000E+00	 0.000E+00	 0.000E+00	 0.000E+00	 0.000E+00	|	 0.000E+00	 0.000E+00	 0.000E+00	 0.000E+00	 0.000E+00	 0.000E+00	|	 0.000E+00	 0.000E+00	 0.000E+00	|	 0.000E+00
 4.818E-03	|	          	|	          	|	          	          	          	          	          	          	|	 0.000E+00	 0.000E+00	 0.000E+00	 0.000E+00	 0.000E+00	 0.000E+00	|	 0.000E+00	 0.000E+00	 1.000E+00	 0.000E+00	 0.000E+00	 0.000E+00	|	 0.000E+00	 0.000E+00	 0.000E+00	|	 0.000E+00
 4.174E-08	|	          	|	          	|	          	          	          	          	          	          	|	 0.000E+00	 0.000E+00	 1.000E+00	 0.000E+00	 0.000E+00	 0.000E+00	|	 0.000E+00	 0.000E+00	 0.000E+00	 0.000E+00	 0.000E+00	 0.000E+00	|	 0.000E+00	 0.000E+00	 0.000E+00	|	 0.000E+00
 1.174E+03	|	          	|	          	|	          	          	          	          	          	          	|	 0.000E+00	 9.263E+02	 0.000E+00	 0.000E+00	 0.000E+00	 0.000E+00	|	 0.000E+00	 0.000E+00	 0.000E+00	 0.000E+00	 0.000E+00	 0.000E+00	|	 0.000E+00	 0.000E+00	 0.000E+00	|	 0.000E+00
 2.800E-04	|	          	|	          	|	          	          	          	          	          	          	|	-5.024E-02	-4.307E-02	-1.042E-01	 8.371E-03	 3.374E-03	 3.931E-03	|	-4.435E+00	-3.014E-02	-8.566E+00	 1.843E-01	 6.374E-02	 8.803E-02	|	 3.769E-02	-8.081E-02	 1.833E-01	|	 4.228E-02
 1.190E-04	|	          	|	          	|	          	          	          	          	          	          	|	 1.000E+00	 0.000E+00	 0.000E+00	 0.000E+00	 0.000E+00	 0.000E+00	|	 0.000E+00	 0.000E+00	 0.000E+00	 0.000E+00	 0.000E+00	 0.000E+00	|	 0.000E+00	 0.000E+00	 0.000E+00	|	 0.000E+00
 3.070E-01	|	          	|	          	|	          	          	          	          	          	          	|	 0.000E+00	 0.000E+00	 0.000E+00	 0.000E+00	 0.000E+00	 0.000E+00	|	 1.000E+00	 0.000E+00	 0.000E+00	 0.000E+00	 0.000E+00	 0.000E+00	|	 0.000E+00	 0.000E+00	 0.000E+00	|	 0.000E+00


--------- Azimuth =   9.00 deg (with respect to AzimB1Up =   0.00 deg) ---------
op        	|	op        	|	op        	|	M - Mass  	          	          	          	          	          	|	C - Damp  	          	          	          	          	          	|	K - Stiff 	          	          	          	          	          	|	F - Input 	          	          	|	Fd - Dstrb
Accleratns	|	Velocities	|	Displcmnts	|	Matrix    	          	          	          	          	          	|	Matrix    	          	          	          	          	          	|	Matrix    	          	          	          	          	          	|	Matrix    	          	          	|	Matrix    
 2.020E-04	|	 1.290E-04	|	 3.070E-01	|	 4.378E+05	 7.268E+02	 7.268E+02	 3.887E+03	 1.025E+03	 1.685E+03	|	 8.904E+04	-1.585E+05	-1.585E+05	 1.226E+04	 2.983E+03	 5.145E+03	|	 1.849E+06	-2.293E+03	-2.261E+03	 4.814E+03	-2.298E+03	-1.598E+03	|	-1.928E+06	-5.653E+05	-8.005E+05	|	 8.159E+04
-9.320E-06	|	 1.267E+00	|	 4.865E+00	|	 7.268E+02	 4.380E+07	 3.877E+07	 2.205E+04	 2.206E+04	 2.205E+04	|	 7.687E+05	 1.620E+07	 2.619E+06	 7.976E+04	 8.565E+04	 8.836E+04	|	 1.888E+04	 6.517E+02	 7.950E+02	 3.560E+02	 3.844E+03	 3.311E+03	|	-5.368E+06	-6.110E+06	-5.868E+06	|	 9.739E+05
-5.047E-07	|	 4.221E-08	|	 4.818E-03	|	 7.268E+02	 3.877E+07	 3.877E+07	 2.205E+04	 2.206E+04	 2.205E+04	|	 7.687E+05	 2.619E+06	 8.834E+06	 7.976E+04	 8.565E+04	 8.836E+04	|	 1.888E+04	 6.517E+02	 8.676E+08	 3.560E+02	 3.844E+03	 3.311E+03	|	-5.368E+06	-6.110E+06	-5.868E+06	|	 9.739E+05
 1.851E-01	|	 3.721E-01	|	 4.245E+00	|	 3.887E+03	 2.205E+04	 2.205E+04	 9.474E+02	 0.000E+00	 0.000E+00	|	 1.283E+04	-2.116E+04	-2.116E+04	 3.824E+03	-6.848E+00	-7.020E+00	|	 1.977E+02	-5.799E+03	-5.790E+03	 1.938E+04	 1.283E-01	-4.285E-02	|	-4.664E+05	 8.102E+02	 7.766E+02	|	 9.278E+03
-4.933E-01	|	-4.963E-02	|	 4.677E+00	|	 1.025E+03	 2.206E+04	 2.206E+04	 0.000E+00	 9.490E+02	 0.000E+00	|	 1.234E+02	-2.312E+04	-2.312E+04	 5.008E+00	 4.006E+03	 4.965E+00	|	-5.700E+02	 2.280E+03	 2.274E+03	 5.993E-01	 1.964E+04	 2.747E-04	|	-5.875E+02	-4.778E+05	-5.427E+02	|	 9.719E+03
 3.132E-01	|	-3.232E-01	|	 4.171E+00	|	 1.685E+03	 2.205E+04	 2.205E+04	 0.000E+00	 0.000E+00	 9.472E+02	|	 9.188E+03	-2.654E+04	-2.654E+04	 2.783E+00	 2.697E+00	 3.860E+03	|	-2.258E+02	 3.634E+03	 3.631E+03	 5.135E-01	-4.266E-02	 1.958E+04	|	-3.268E+02	-3.133E+02	-4.841E+05	|	 9.370E+03

op Output 	|	This colmn	|	This colmn	|	This matrx	          	          	          	          	          	|	VelC - Out	          	          	          	          	          	|	DspC - Out	          	          	          	          	          	|	D - Trnsmt	          	          	|	Dd - DTsmt
Measurmnts	|	is blank  	|	is blank  	|	is blank  	          	          	          	          	          	|	Matrix    	          	          	          	          	          	|	Matrix    	          	          	          	          	          	|	Matrix    	          	          	|	Matrix    
 1.210E+01	|	          	|	          	|	          	          	          	          	          	          	|	 0.000E+00	 9.549E+00	 9.549E+00	 0.000E+00	 0.000E+00	 0.000E+00	|	 0.000E+00	 0.000E+00	 0.000E+00	 0.000E+00	 0.000E+00	 0.000E+00	|	 0.000E+00	 0.000E+00	 0.000E+00	|	 0.000E+00
 4.865E+00	|	          	|	          	|	          	          	          	          	          	          	|	 0.000E+00	 0.000E+00	 0.000E+00	 0.000E+00	 0.000E+00	 0.000E+00	|	 0.000E+00	 1.000E+00	 0.000E+00	 0.000E+00	 0.000E+00	 0.000E+00	|	 0.000E+00	 0.000E+00	 0.000E+00	|	 0.000E+00
 1.267E+00	|	          	|	          	|	          	          	          	          	          	          	|	 0.000E+00	 1.000E+00	 0.000E+00	 0.000E+00	 0.000E+00	 0.000E+00	|	 0.000E+00	 0.000E+00	 0.000E+00	 0.000E+00	 0.000E+00	 0.000E+00	|	 0.000E+00	 0.000E+00	 0.000E+00	|	 0.000E+00
 4.818E-03	|	          	|	          	|	          	          	          	          	          	          	|	 0.000E+00	 0.000E+00	 0.000E+00	 0.000E+00	 0.000E+00	 0.000E+00	|	 0.000E+00	 0.000E+00	 1.000E+00	 0.000E+00	 0.000E+00	 0.000E+00	|	 0.000E+00	 0.000E+00	 0.000E+00	|	 0.000E+00
 4.221E-08	|	          	|	          	|	          	          	          	          	          	          	|	 0.000E+00	 0.000E+00	 1.000E+00	 0.000E+00	 0.000E+00	 0.000E+00	|	 0.000E+00	 0.000E+00	 0.000E+00	 0.000E+00	 0.000E+00	 0.000E+00	|	 0.000E+00	 0.000E+00	 0.000E+00	|	 0.000E+00
 1.174E+03	|	          	|	          	|	          	          	          	          	          	          	|	 0.000E+00	 9.263E+02	 0.000E+00	 0.000E+00	 0.000E+00	 0.000E+00	|	 0.000E+00	 0.000E+00	 0.000E+00	 0.000E+00	 0.000E+00	 0.000E+00	|	 0.000E+00	 0.000E+00	 0.000E+00	|	 0.000E+00
 2.023E-04	|	          	|	          	|	          	          	          	          	          	          	|	-5.022E-02	-4.312E-02	-1.043E-01	 8.353E-03	 3.240E-03	 4.085E-03	|	-4.435E+00	-3.012E-02	-8.566E+00	 1.835E-01	 6.082E-02	 9.178E-02	|	 2.263E-02	-7.549E-02	 1.921E-01	|	 4.229E-02
 1.290E-04	|	          	|	          	|	          	          	          	          	          	          	|	 1.000E+00	 0.000E+00	 0.000E+00	 0.000E+00	 0.000E+00	 0.000E+00	|	 0.000E+00	 0.000E+00	 0.000E+00	 0.000E+00	 0.000E+00	 0.000E+00	|	 0.000E+00	 0.000E+00	 0.000E+00	|	 0.000E+00
 3.070E-01	|	          	|	          	|	          	          	          	          	          	          	|	 0.000E+00	 0.000E+00	 0.000E+00	 0.000E+00	 0.000E+00	 0.000E+00	|	 1.000E+00	 0.000E+00	 0.000E+00	 0.000E+00	 0.000E+00	 0.000E+00	|	 0.000E+00	 0.000E+00	 0.000E+00	|	 0.000E+00


--------- Azimuth =  12.00 deg (with respect to AzimB1Up =   0.00 deg) ---------
op        	|	op        	|	op        	|	M - Mass  	          	          	          	          	          	|	C - Damp  	          	          	          	          	          	|	K - Stiff 	          	          	          	          	          	|	F - Input 	          	          	|	Fd - Dstrb
Accleratns	|	Velocities	|	Displcmnts	|	Matrix    	          	          	          	          	          	|	Matrix    	          	          	          	          	          	|	Matrix    	          	          	          	          	          	|	Matrix    	          	          	|	Matrix    
 1.223E-04	|	 1.357E-04	|	 3.070E-01	|	 4.378E+05	 7.276E+02	 7.276E+02	 3.865E+03	 9.602E+02	 1.772E+03	|	 8.906E+04	-1.585E+05	-1.585E+05	 1.219E+04	 2.764E+03	 5.426E+03	|	 1.849E+06	-2.292E+03	-2.259E+03	 4.784E+03	-2.471E+03	-1.394E+03	|	-1.922E+06	-5.309E+05	-8.409E+05	|	 8.160E+04
-9.282E-06	|	 1.267E+00	|	 4.917E+00	|	 7.276E+02	 4.380E+07	 3.877E+07	 2.205E+04	 2.206E+04	 2.205E+04	|	 7.686E+05	 1.620E+07	 2.620E+06	 7.966E+04	 8.593E+04	 8.817E+04	|	 1.889E+04	 4.798E+02	-1.890E+02	 3.708E+02	 3.902E+03	 3.225E+03	|	-5.374E+06	-6.129E+06	-5.847E+06	|	 9.740E+05
-5.296E-07	|	 1.657E-08	|	 4.818E-03	|	 7.276E+02	 3.877E+07	 3.877E+07	 2.205E+04	 2.206E+04	 2.205E+04	|	 7.686E+05	 2.620E+06	 8.835E+06	 7.966E+04	 8.593E+04	 8.817E+04	|	 1.889E+04	 4.798E+02	 8.676E+08	 3.707E+02	 3.902E+03	 3.225E+03	|	-5.374E+06	-6.129E+06	-5.847E+06	|	 9.740E+05
 1.601E-01	|	 3.793E-01	|	 4.261E+00	|	 3.865E+03	 2.205E+04	 2.205E+04	 9.475E+02	 0.000E+00	 0.000E+00	|	 1.256E+04	-2.106E+04	-2.106E+04	 3.829E+03	-6.763E+00	-6.934E+00	|	 1.894E+02	-5.823E+03	-5.815E+03	 1.938E+04	 1.283E-01	-8.563E-02	|	-4.662E+05	 8.001E+02	 7.721E+02	|	 9.288E+03
-4.901E-01	|	-6.995E-02	|	 4.674E+00	|	 9.602E+02	 2.206E+04	 2.206E+04	 0.000E+00	 9.489E+02	 0.000E+00	|	 1.364E+01	-2.329E+04	-2.329E+04	 5.308E+00	 4.007E+03	 5.265E+00	|	-5.851E+02	 2.563E+03	 2.556E+03	 6.423E-01	 1.964E+04	 0.000E+00	|	-6.289E+02	-4.783E+05	-5.797E+02	|	 9.723E+03
 3.352E-01	|	-3.098E-01	|	 4.158E+00	|	 1.772E+03	 2.205E+04	 2.205E+04	 0.000E+00	 0.000E+00	 9.471E+02	|	 9.570E+03	-2.647E+04	-2.647E+04	 2.311E+00	 2.354E+00	 3.855E+03	|	-2.025E+02	 3.377E+03	 3.375E+03	 4.279E-01	 9.155E-05	 1.957E+04	|	-2.798E+02	-2.675E+02	-4.837E+05	|	 9.357E+03

op Output 	|	This colmn	|	This colmn	|	This matrx	          	          	          	          	          	|	VelC - Out	          	          	          	          	          	|	DspC - Out	          	          	          	          	          	|	D - Trnsmt	          	          	|	Dd - DTsmt
Measurmnts	|	is blank  	|	is blank  	|	is blank  	          	          	          	          	          	|	Matrix    	          	          	          	          	          	|	Matrix    	          	          	          	          	          	|	Matrix    	          	          	|	Matrix    
 1.210E+01	|	          	|	          	|	          	          	          	          	          	          	|	 0.000E+00	 9.549E+00	 9.549E+00	 0.000E+00	 0.000E+00	 0.000E+00	|	 0.000E+00	 0.000E+00	 0.000E+00	 0.000E+00	 0.000E+00	 0.000E+00	|	 0.000E+00	 0.000E+00	 0.000E+00	|	 0.000E+00
 4.917E+00	|	          	|	          	|	          	          	          	          	          	          	|	 0.000E+00	 0.000E+00	 0.000E+00	 0.000E+00	 0.000E+00	 0.000E+00	|	 0.000E+00	 1.000E+00	 0.000E+00	 0.000E+00	 0.000E+00	 0.000E+00	|	 0.000E+00	 0.000E+00	 0.000E+00	|	 0.000E+00
 1.267E+00	|	          	|	          	|	          	          	          	          	          	          	|	 0.000E+00	 1.000E+00	 0.000E+00	 0.000E+00	 0.000E+00	 0.000E+00	|	 0.000E+00	 0.000E+00	 0.000E+00	 0.000E+00	 0.000E+00	 0.000E+00	|	 0.000E+00	 0.000E+00	 0.000E+00	|	 0.000E+00
 4.818E-03	|	          	|	          	|	          	          	          	          	          	          	|	 0.000E+00	 0.000E+00	 0.000E+00	 0.000E+00	 0.000E+00	 0.000E+00	|	 0.000E+00	 0.000E+00	 1.000E+00	 0.000E+00	 0.000E+00	 0.000E+00	|	 0.000E+00	 0.000E+00	 0.000E+00	|	 0.000E+00
 1.657E-08	|	          	|	          	|	          	          	          	          	          	          	|	 0.000E+00	 0.000E+00	 1.000E+00	 0.000E+00	 0.000E+00	 0.000E+00	|	 0.000E+00	 0.000E+00	 0.000E+00	 0.000E+00	 0.000E+00	 0.000E+00	|	 0.000E+00	 0.000E+00	 0.000E+00	|	 0.000E+00
 1.174E+03	|	          	|	          	|	          	          	          	          	          	          	|	 0.000E+00	 9.263E+02	 0.000E+00	 0.000E+00	 0.000E+00	 0.000E+00	|	 0.000E+00	 0.000E+00	 0.000E+00	 0.000E+00	 0.000E+00	 0.000E+00	|	 0.000E+00	 0.000E+00	 0.000E+00	|	 0.000E+00
 1.227E-04	|	          	|	          	|	          	          	          	          	          	          	|	-5.021E-02	-4.311E-02	-1.042E-01	 8.326E-03	 3.107E-03	 4.240E-03	|	-4.435E+00	-3.007E-02	-8.566E+00	 1.825E-01	 5.803E-02	 9.558E-02	|	 7.643E-03	-7.012E-02	 2.009E-01	|	 4.232E-02