
This linearized model file was generated by FAST (v7.02.00d-bjj, 20-Feb-2013) on 22-Jun-2018 at 22:07:09.
The aerodynamic calculations were made by AeroDyn (v13.00.02a-bjj, 20-Feb-2013).

 NREL 5.0 MW Baseline Wind Turbine for Use in Offshore Analysis.


Some Useful Information:

   Type of steady state solution found                Trimmed collective blade pitch (TrimCase = 3)
   Azimuth-average rotor speed, RotSpeed      (rad/s)    1.26711E+00
   Period of steady state solution              (sec)    4.95868E+00
   Iterations needed to find steady state solution     107
   Displacement 2-norm of steady state solution (rad)    2.21391E-05
   Velocity 2-norm of steady state solution   (rad/s)    7.75646E-06
   Number of equally-speced azimuth steps, NAzimStep   120
   Order of linearized model, MdlOrder                   2
   Number of active (enabled) DOFs                       5
   Number of control inputs, NInputs                     1
   Number of input wind disturbances, NDisturbs          1
   Number of output measurements                         6


Order of States in Linearized State Matrices:

   Row/column  1 = Variable speed generator DOF (internal DOF index = DOF_GeAz)
   Row/column  2 = Drivetrain rotational-flexibility DOF (internal DOF index = DOF_DrTr)
   Row/column  3 = 1st flapwise bending-mode DOF of blade 1 (internal DOF index = DOF_BF(1,1))
   Row/column  4 = 1st flapwise bending-mode DOF of blade 2 (internal DOF index = DOF_BF(2,1))
   Row/column  5 = 1st flapwise bending-mode DOF of blade 3 (internal DOF index = DOF_BF(3,1))


Order of Control Inputs in Linearized State Matrices:

   Column 1 = rotor collective blade pitch      (rad)    7.16347E-02 op


Order of Input Wind Disturbances in Linearized State Matrices:

   Column 1 = horizontal hub-height wind speed  (m/s) : See selected wind file for op


Order of Output Measurements in Linearized State Matrices:

   Row   1 = RotSpeed   (rpm)     
   Row   2 = Q_GeAz     (rad)     
   Row   3 = QD_GeAz    (rad/s)   
   Row   4 = Q_DrTr     (rad)     
   Row   5 = QD_DrTr    (rad/s)   
   Row   6 = GenSpeed   (rpm)     


Linearized State Matrices:

--------- Azimuth =   0.00 deg (with respect to AzimB1Up =   0.00 deg) ---------
op        	|	op        	|	op        	|	M - Mass  	          	          	          	          	|	C - Damp  	          	          	          	          	|	K - Stiff 	          	          	          	          	|	F - Input 	|	Fd - Dstrb
Accleratns	|	Velocities	|	Displcmnts	|	Matrix    	          	          	          	          	|	Matrix    	          	          	          	          	|	Matrix    	          	          	          	          	|	Matrix    	|	Matrix    
-7.736E-06	|	 1.267E+00	|	 4.708E+00	|	 4.380E+07	 3.877E+07	 2.208E+04	 2.209E+04	 2.208E+04	|	 1.621E+07	 2.626E+06	 8.043E+04	 8.484E+04	 8.880E+04	|	 8.379E+02	 8.300E+02	 7.360E+01	 3.805E+03	 3.635E+03	|	-1.739E+07	|	 9.745E+05
 1.572E-06	|	 1.257E-07	|	 4.818E-03	|	 3.877E+07	 3.877E+07	 2.208E+04	 2.209E+04	 2.208E+04	|	 2.626E+06	 8.841E+06	 8.043E+04	 8.484E+04	 8.880E+04	|	 8.379E+02	 8.676E+08	 7.360E+01	 3.805E+03	 3.635E+03	|	-1.739E+07	|	 9.745E+05
 2.465E-01	|	 3.456E-01	|	 4.197E+00	|	 2.208E+04	 2.208E+04	 9.472E+02	 0.000E+00	 0.000E+00	|	-2.148E+04	-2.148E+04	 3.823E+03	-6.506E+00	-6.592E+00	|	-5.600E+03	-5.599E+03	 1.936E+04	 4.285E-02	-9.155E-05	|	-4.665E+05	|	 9.266E+03
-4.924E-01	|	 3.056E-03	|	 4.665E+00	|	 2.209E+04	 2.209E+04	 0.000E+00	 9.489E+02	 0.000E+00	|	-2.252E+04	-2.252E+04	 3.724E+00	 3.996E+03	 3.681E+00	|	 1.511E+03	 1.511E+03	 3.854E-01	 1.962E+04	-1.285E-01	|	-4.760E+05	|	 9.691E+03
 2.473E-01	|	-3.487E-01	|	 4.198E+00	|	 2.208E+04	 2.208E+04	 0.000E+00	 0.000E+00	 9.473E+02	|	-2.644E+04	-2.644E+04	 3.681E+00	 3.553E+00	 3.880E+03	|	 4.206E+03	 4.206E+03	 5.564E-01	 8.560E-02	 1.961E+04	|	-4.866E+05	|	 9.418E+03

op Output 	|	This colmn	|	This colmn	|	This matrx	          	          	          	          	|	VelC - Out	          	          	          	          	|	DspC - Out	          	          	          	          	|	D - Trnsmt	|	Dd - DTsmt
Measurmnts	|	is blank  	|	is blank  	|	is blank  	          	          	          	          	|	Matrix    	          	          	          	          	|	Matrix    	          	          	          	          	|	Matrix    	|	Matrix    
 1.210E+01	|	          	|	          	|	          	          	          	          	          	|	 9.549E+00	 9.549E+00	 0.000E+00	 0.000E+00	 0.000E+00	|	 0.000E+00	 0.000E+00	 0.000E+00	 0.000E+00	 0.000E+00	|	 0.000E+00	|	 0.000E+00
 4.708E+00	|	          	|	          	|	          	          	          	          	          	|	 0.000E+00	 0.000E+00	 0.000E+00	 0.000E+00	 0.000E+00	|	 1.000E+00	 0.000E+00	 0.000E+00	 0.000E+00	 0.000E+00	|	 0.000E+00	|	 0.000E+00
 1.267E+00	|	          	|	          	|	          	          	          	          	          	|	 1.000E+00	 0.000E+00	 0.000E+00	 0.000E+00	 0.000E+00	|	 0.000E+00	 0.000E+00	 0.000E+00	 0.000E+00	 0.000E+00	|	 0.000E+00	|	 0.000E+00
 4.818E-03	|	          	|	          	|	          	          	          	          	          	|	 0.000E+00	 0.000E+00	 0.000E+00	 0.000E+00	 0.000E+00	|	 0.000E+00	 1.000E+00	 0.000E+00	 0.000E+00	 0.000E+00	|	 0.000E+00	|	 0.000E+00
 1.257E-07	|	          	|	          	|	          	          	          	          	          	|	 0.000E+00	 1.000E+00	 0.000E+00	 0.000E+00	 0.000E+00	|	 0.000E+00	 0.000E+00	 0.000E+00	 0.000E+00	 0.000E+00	|	 0.000E+00	|	 0.000E+00
 1.174E+03	|	          	|	          	|	          	          	          	          	          	|	 9.263E+02	 0.000E+00	 0.000E+00	 0.000E+00	 0.000E+00	|	 0.000E+00	 0.000E+00	 0.000E+00	 0.000E+00	 0.000E+00	|	 0.000E+00	|	 0.000E+00


--------- Azimuth =   3.00 deg (with respect to AzimB1Up =   0.00 deg) ---------
op        	|	op        	|	op        	|	M - Mass  	          	          	          	          	|	C - Damp  	          	          	          	          	|	K - Stiff 	          	          	          	          	|	F - Input 	|	Fd - Dstrb
Accleratns	|	Velocities	|	Displcmnts	|	Matrix    	          	          	          	          	|	Matrix    	          	          	          	          	|	Matrix    	          	          	          	          	|	Matrix    	|	Matrix    
-6.603E-06	|	 1.267E+00	|	 4.760E+00	|	 4.380E+07	 3.877E+07	 2.208E+04	 2.209E+04	 2.208E+04	|	 1.621E+07	 2.625E+06	 8.032E+04	 8.512E+04	 8.866E+04	|	 7.448E+02	 8.130E+02	 7.030E+01	 3.895E+03	 3.538E+03	|	-1.739E+07	|	 9.744E+05
 6.381E-07	|	 1.701E-07	|	 4.818E-03	|	 3.877E+07	 3.877E+07	 2.208E+04	 2.209E+04	 2.208E+04	|	 2.625E+06	 8.840E+06	 8.032E+04	 8.512E+04	 8.866E+04	|	 7.448E+02	 8.676E+08	 7.034E+01	 3.895E+03	 3.538E+03	|	-1.739E+07	|	 9.744E+05
 2.227E-01	|	 3.553E-01	|	 4.211E+00	|	 2.208E+04	 2.208E+04	 9.473E+02	 0.000E+00	 0.000E+00	|	-2.136E+04	-2.137E+04	 3.826E+03	-6.506E+00	-6.634E+00	|	-5.666E+03	-5.666E+03	 1.936E+04	 8.572E-02	-8.566E-02	|	-4.662E+05	|	 9.272E+03
-4.922E-01	|	-1.729E-02	|	 4.665E+00	|	 2.209E+04	 2.209E+04	 0.000E+00	 9.489E+02	 0.000E+00	|	-2.267E+04	-2.267E+04	 4.023E+00	 3.998E+03	 4.024E+00	|	 1.803E+03	 1.803E+03	 4.708E-01	 1.963E+04	-1.282E-01	|	-4.766E+05	|	 9.697E+03
 2.709E-01	|	-3.380E-01	|	 4.184E+00	|	 2.208E+04	 2.208E+04	 0.000E+00	 0.000E+00	 9.472E+02	|	-2.640E+04	-2.640E+04	 3.253E+00	 3.210E+00	 3.875E+03	|	 3.979E+03	 3.979E+03	 5.138E-01	 4.269E-02	 1.960E+04	|	-4.863E+05	|	 9.405E+03

op Output 	|	This colmn	|	This colmn	|	This matrx	          	          	          	          	|	VelC - Out	          	          	          	          	|	DspC - Out	          	          	          	          	|	D - Trnsmt	|	Dd - DTsmt
Measurmnts	|	is blank  	|	is blank  	|	is blank  	          	          	          	          	|	Matrix    	          	          	          	          	|	Matrix    	          	          	          	          	|	Matrix    	|	Matrix    
 1.210E+01	|	          	|	          	|	          	          	          	          	          	|	 9.549E+00	 9.549E+00	 0.000E+00	 0.000E+00	 0.000E+00	|	 0.000E+00	 0.000E+00	 0.000E+00	 0.000E+00	 0.000E+00	|	 0.000E+00	|	 0.000E+00
 4.760E+00	|	          	|	          	|	          	          	          	          	          	|	 0.000E+00	 0.000E+00	 0.000E+00	 0.000E+00	 0.000E+00	|	 1.000E+00	 0.000E+00	 0.000E+00	 0.000E+00	 0.000E+00	|	 0.000E+00	|	 0.000E+00
 1.267E+00	|	          	|	          	|	          	          	          	          	          	|	 1.000E+00	 0.000E+00	 0.000E+00	 0.000E+00	 0.000E+00	|	 0.000E+00	 0.000E+00	 0.000E+00	 0.000E+00	 0.000E+00	|	 0.000E+00	|	 0.000E+00
 4.818E-03	|	          	|	          	|	          	          	          	          	          	|	 0.000E+00	 0.000E+00	 0.000E+00	 0.000E+00	 0.000E+00	|	 0.000E+00	 1.000E+00	 0.000E+00	 0.000E+00	 0.000E+00	|	 0.000E+00	|	 0.000E+00
 1.701E-07	|	          	|	          	|	          	          	          	          	          	|	 0.000E+00	 1.000E+00	 0.000E+00	 0.000E+00	 0.000E+00	|	 0.000E+00	 0.000E+00	 0.000E+00	 0.000E+00	 0.000E+00	|	 0.000E+00	|	 0.000E+00
 1.174E+03	|	          	|	          	|	          	          	          	          	          	|	 9.263E+02	 0.000E+00	 0.000E+00	 0.000E+00	 0.000E+00	|	 0.000E+00	 0.000E+00	 0.000E+00	 0.000E+00	 0.000E+00	|	 0.000E+00	|	 0.000E+00


--------- Azimuth =   6.00 deg (with respect to AzimB1Up =   0.00 deg) ---------
op        	|	op        	|	op        	|	M - Mass  	          	          	          	          	|	C - Damp  	          	          	          	          	|	K - Stiff 	          	          	          	          	|	F - Input 	|	Fd - Dstrb
Accleratns	|	Velocities	|	Displcmnts	|	Matrix    	          	          	          	          	|	Matrix    	          	          	          	          	|	Matrix    	          	          	          	          	|	Matrix    	|	Matrix    
-5.469E-06	|	 1.267E+00	|	 4.812E+00	|	 4.380E+07	 3.877E+07	 2.208E+04	 2.209E+04	 2.208E+04	|	 1.621E+07	 2.625E+06	 8.022E+04	 8.539E+04	 8.851E+04	|	 7.699E+02	 7.740E+02	 8.514E+01	 3.967E+03	 3.453E+03	|	-1.739E+07	|	 9.745E+05
-4.336E-07	|	 1.750E-07	|	 4.818E-03	|	 3.877E+07	 3.877E+07	 2.208E+04	 2.209E+04	 2.208E+04	|	 2.625E+06	 8.840E+06	 8.022E+04	 8.539E+04	 8.851E+04	|	 7.699E+02	 8.676E+08	 8.514E+01	 3.967E+03	 3.453E+03	|	-1.739E+07	|	 9.745E+05
 1.983E-01	|	 3.640E-01	|	 4.226E+00	|	 2.208E+04	 2.208E+04	 9.473E+02	 0.000E+00	 0.000E+00	|	-2.125E+04	-2.125E+04	 3.830E+03	-6.420E+00	-6.549E+00	|	-5.717E+03	-5.717E+03	 1.936E+04	 4.294E-02	-4.282E-02	|	-4.659E+05	|	 9.280E+03
-4.907E-01	|	-3.761E-02	|	 4.664E+00	|	 2.209E+04	 2.209E+04	 0.000E+00	 9.489E+02	 0.000E+00	|	-2.283E+04	-2.283E+04	 4.366E+00	 4.000E+03	 4.452E+00	|	 2.091E+03	 2.090E+03	 5.142E-01	 1.964E+04	 1.526E-04	|	-4.772E+05	|	 9.702E+03
 2.938E-01	|	-3.263E-01	|	 4.171E+00	|	 2.208E+04	 2.208E+04	 0.000E+00	 0.000E+00	 9.472E+02	|	-2.636E+04	-2.636E+04	 2.911E+00	 2.868E+00	 3.870E+03	|	 3.742E+03	 3.742E+03	 4.709E-01	 2.441E-04	 1.959E+04	|	-4.859E+05	|	 9.392E+03

op Output 	|	This colmn	|	This colmn	|	This matrx	          	          	          	          	|	VelC - Out	          	          	          	          	|	DspC - Out	          	          	          	          	|	D - Trnsmt	|	Dd - DTsmt
Measurmnts	|	is blank  	|	is blank  	|	is blank  	          	          	          	          	|	Matrix    	          	          	          	          	|	Matrix    	          	          	          	          	|	Matrix    	|	Matrix    
 1.210E+01	|	          	|	          	|	          	          	          	          	          	|	 9.549E+00	 9.549E+00	 0.000E+00	 0.000E+00	 0.000E+00	|	 0.000E+00	 0.000E+00	 0.000E+00	 0.000E+00	 0.000E+00	|	 0.000E+00	|	 0.000E+00
 4.812E+00	|	          	|	          	|	          	          	          	          	          	|	 0.000E+00	 0.000E+00	 0.000E+00	 0.000E+00	 0.000E+00	|	 1.000E+00	 0.000E+00	 0.000E+00	 0.000E+00	 0.000E+00	|	 0.000E+00	|	 0.000E+00
 1.267E+00	|	          	|	          	|	          	          	          	          	          	|	 1.000E+00	 0.000E+00	 0.000E+00	 0.000E+00	 0.000E+00	|	 0.000E+00	 0.000E+00	 0.000E+00	 0.000E+00	 0.000E+00	|	 0.000E+00	|	 0.000E+00
 4.818E-03	|	          	|	          	|	          	          	          	          	          	|	 0.000E+00	 0.000E+00	 0.000E+00	 0.000E+00	 0.000E+00	|	 0.000E+00	 1.000E+00	 0.000E+00	 0.000E+00	 0.000E+00	|	 0.000E+00	|	 0.000E+00
 1.750E-07	|	          	|	          	|	          	          	          	          	          	|	 0.000E+00	 1.000E+00	 0.000E+00	 0.000E+00	 0.000E+00	|	 0.000E+00	 0.000E+00	 0.000E+00	 0.000E+00	 0.000E+00	|	 0.000E+00	|	 0.000E+00
 1.174E+03	|	          	|	          	|	          	          	          	          	          	|	 9.263E+02	 0.000E+00	 0.000E+00	 0.000E+00	 0.000E+00	|	 0.000E+00	 0.000E+00	 0.000E+00	 0.000E+00	 0.000E+00	|	 0.000E+00	|	 0.000E+00


--------- Azimuth =   9.00 deg (with respect to AzimB1Up =   0.00 deg) ---------
op        	|	op        	|	op        	|	M - Mass  	          	          	          	          	|	C - Damp  	          	          	          	          	|	K - Stiff 	          	          	          	          	|	F - Input 	|	Fd - Dstrb
Accleratns	|	Velocities	|	Displcmnts	|	Matrix    	          	          	          	          	|	Matrix    	          	          	          	          	|	Matrix    	          	          	          	          	|	Matrix    	|	Matrix    
-4.408E-06	|	 1.267E+00	|	 4.865E+00	|	 4.380E+07	 3.877E+07	 2.208E+04	 2.209E+04	 2.208E+04	|	 1.621E+07	 2.625E+06	 8.012E+04	 8.565E+04	 8.834E+04	|	 5.264E+02	 1.306E+03	 1.010E+02	 4.042E+03	 3.356E+03	|	-1.740E+07	|	 9.746E+05
-1.135E-06	|	 1.420E-07	|	 4.818E-03	|	 3.877E+07	 3.877E+07	 2.208E+04	 2.209E+04	 2.208E+04	|	 2.625E+06	 8.840E+06	 8.012E+04	 8.565E+04	 8.834E+04	|	 5.264E+02	 8.676E+08	 1.010E+02	 4.042E+03	 3.356E+03	|	-1.740E+07	|	 9.746E+05
 1.734E-01	|	 3.716E-01	|	 4.241E+00	|	 2.208E+04	 2.208E+04	 9.474E+02	 0.000E+00	 0.000E+00	|	-2.115E+04	-2.115E+04	 3.834E+03	-6.420E+00	-6.677E+00	|	-5.752E+03	-5.752E+03	 1.937E+04	 1.712E-01	-8.551E-02	|	-4.657E+05	|	 9.289E+03
-4.880E-01	|	-5.783E-02	|	 4.662E+00	|	 2.209E+04	 2.209E+04	 0.000E+00	 9.489E+02	 0.000E+00	|	-2.298E+04	-2.298E+04	 4.665E+00	 4.001E+03	 4.751E+00	|	 2.373E+03	 2.373E+03	 5.139E-01	 1.964E+04	 4.279E-02	|	-4.779E+05	|	 9.706E+03
 3.158E-01	|	-3.137E-01	|	 4.157E+00	|	 2.208E+04	 2.208E+04	 0.000E+00	 0.000E+00	 9.471E+02	|	-2.630E+04	-2.630E+04	 2.611E+00	 2.525E+00	 3.865E+03	|	 3.494E+03	 3.494E+03	 4.281E-01	 6.104E-05	 1.958E+04	|	-4.856E+05	|	 9.380E+03

op Output 	|	This colmn	|	This colmn	|	This matrx	          	          	          	          	|	VelC - Out	          	          	          	          	|	DspC - Out	          	          	          	          	|	D - Trnsmt	|	Dd - DTsmt
Measurmnts	|	is blank  	|	is blank  	|	is blank  	          	          	          	          	|	Matrix    	          	          	          	          	|	Matrix    	          	          	          	          	|	Matrix    	|	Matrix    
 1.210E+01	|	          	|	          	|	          	          	          	          	          	|	 9.549E+00	 9.549E+00	 0.000E+00	 0.000E+00	 0.000E+00	|	 0.000E+00	 0.000E+00	 0.000E+00	 0.000E+00	 0.000E+00	|	 0.000E+00	|	 0.000E+00
 4.865E+00	|	          	|	          	|	          	          	          	          	          	|	 0.000E+00	 0.000E+00	 0.000E+00	 0.000E+00	 0.000E+00	|	 1.000E+00	 0.000E+00	 0.000E+00	 0.000E+00	 0.000E+00	|	 0.000E+00	|	 0.000E+00
 1.267E+00	|	          	|	          	|	          	          	          	          	          	|	 1.000E+00	 0.000E+00	 0.000E+00	 0.000E+00	 0.000E+00	|	 0.000E+00	 0.000E+00	 0.000E+00	 0.000E+00	 0.000E+00	|	 0.000E+00	|	 0.000E+00
 4.818E-03	|	          	|	          	|	          	          	          	          	          	|	 0.000E+00	 0.000E+00	 0.000E+00	 0.000E+00	 0.000E+00	|	 0.000E+00	 1.000E+00	 0.000E+00	 0.000E+00	 0.000E+00	|	 0.000E+00	|	 0.000E+00
 1.420E-07	|	          	|	          	|	          	          	          	          	          	|	 0.000E+00	 1.000E+00	 0.000E+00	 0.000E+00	 0.000E+00	|	 0.000E+00	 0.000E+00	 0.000E+00	 0.000E+00	 0.000E+00	|	 0.000E+00	|	 0.000E+00
 1.174E+03	|	          	|	          	|	          	          	          	          	          	|	 9.263E+02	 0.000E+00	 0.000E+00	 0.000E+00	 0.000E+00	|	 0.000E+00	 0.000E+00	 0.000E+00	 0.000E+00	 0.000E+00	|	 0.000E+00	|	 0.000E+00


--------- Azimuth =  12.00 deg (with respect to AzimB1Up =   0.00 deg) ---------
op        	|	op        	|	op        	|	M - Mass  	          	          	          	          	|	C - Damp  	          	          	          	          	|	K - Stiff 	          	          	          	          	|	F - Input 	|	Fd - Dstrb
Accleratns	|	Velocities	|	Displcmnts	|	Matrix    	          	          	          	          	|	Matrix    	          	          	          	          	|	Matrix    	          	          	          	          	|	Matrix    	|	Matrix    
-3.636E-06	|	 1.267E+00	|	 4.917E+00	|	 4.380E+07	 3.877E+07	 2.208E+04	 2.209E+04	 2.208E+04	|	 1.621E+07	 2.626E+06	 8.002E+04	 8.592E+04	 8.819E+04	|	 5.049E+02	 7.850E+02	 1.267E+02	 4.130E+03	 3.264E+03	|	-1.741E+07	|	 9.747E+05
-1.305E-06	|	 8.837E-08	|	 4.818E-03	|	 3.877E+07	 3.877E+07	 2.208E+04	 2.209E+04	 2.208E+04	|	 2.626E+06	 8.841E+06	 8.002E+04	 8.592E+04	 8.819E+04	|	 5.049E+02	 8.676E+08	 1.266E+02	 4.130E+03	 3.264E+03	|	-1.741E+07	|	 9.747E+05
 1.481E-01	|	 3.783E-01	|	 4.257E+00	|	 2.208E+04	 2.208E+04	 9.475E+02	 0.000E+00	 0.000E+00	|	-2.104E+04	-2.104E+04	 3.838E+03	-6.292E+00	-6.506E+00	|	-5.772E+03	-5.772E+03	 1.937E+04	 1.285E-01	-1.712E-01	|	-4.655E+05	|	 9.298E+03
-4.840E-01	|	-7.792E-02	|	 4.659E+00	|	 2.209E+04	 2.209E+04	 0.000E+00	 9.489E+02	 0.000E+00	|	-2.314E+04	-2.314E+04	 4.965E+00	 4.002E+03	 4.965E+00	|	 2.649E+03	 2.649E+03	 6.420E-01	 1.965E+04	 4.288E-02	|	-4.785E+05	|	 9.710E+03
 3.370E-01	|	-3.002E-01	|	 4.145E+00	|	 2.208E+04	 2.208E+04	 0.000E+00	 0.000E+00	 9.471E+02	|	-2.624E+04	-2.624E+04	 2.226E+00	 2.183E+00	 3.859E+03	|	 3.237E+03	 3.237E+03	 3.422E-01	-3.052E-04	 1.957E+04	|	-4.852E+05	|	 9.368E+03

op Output 	|	This colmn	|	This colmn	|	This matrx	          	          	          	          	|	VelC - Out	          	          	          	          	|	DspC - Out	          	          	          	          	|	D - Trnsmt	|	Dd - DTsmt
Measurmnts	|	is blank  	|	is blank  	|	is blank  	          	          	          	          	|	Matrix    	          	          	          	          	|	Matrix    	          	          	          	          	|	Matrix    	|	Matrix    
 1.210E+01	|	          	|	          	|	          	          	          	          	          	|	 9.549E+00	 9.549E+00	 0.000E+00	 0.000E+00	 0.000E+00	|	 0.000E+00	 0.000E+00	 0.000E+00	 0.000E+00	 0.000E+00	|	 0.000E+00	|	 0.000E+00
 4.917E+00	|	          	|	          	|	          	          	          	          	          	|	 0.000E+00	 0.000E+00	 0.000E+00	 0.000E+00	 0.000E+00	|	 1.000E+00	 0.000E+00	 0.000E+00	 0.000E+00	 0.000E+00	|	 0.000E+00	|	 0.000E+00
 1.267E+00	|	          	|	          	|	          	          	          	          	          	|	 1.000E+00	 0.000E+00	 0.000E+00	 0.000E+00	 0.000E+00	|	 0.000E+00	 0.000E+00	 0.000E+00	 0.000E+00	 0.000E+00	|	 0.000E+00	|	 0.000E+00
 4.818E-03	|	          	|	          	|	          	          	          	          	          	|	 0.000E+00	 0.000E+00	 0.000E+00	 0.000E+00	 0.000E+00	|	 0.000E+00	 1.000E+00	 0.000E+00	 0.000E+00	 0.000E+00	|	 0.000E+00	|	 0.000E+00
 8.837E-08	|	          	|	          	|	          	          	          	          	          	|	 0.000E+00	 1.000E+00	 0.000E+00	 0.000E+00	 0.000E+00	|	 0.000E+00	 0.000E+00	 0.000E+00	 0.000E+00	 0.000E+00	|	 0.000E+00	|	 0.000E+00
 1.174E+03	|	          	|	          	|	          	          	          	          	          	|	 9.263E+02	 0.000E+00	 0.000E+00	 0.000E+00	 0.000E+00	|	 0.000E+00	 0.000E+00	 0.000E+00	 0.000E+00	 0.000E+00	|	 0.000E+00	|	 0.000E+00


--------- Azimuth =  15.00 deg (with respect to AzimB1Up =   0.00 deg) ---------
op        	|	op        	|	op        	|	M - Mass  	          	          	          	          	|	C - Damp  	          	          	          	          	|	K - Stiff 	          	          	          	          	|	F - Input 	|	Fd - Dstrb
Accleratns	|	Velocities	|	Displcmnts	|	Matrix    	          	          	          	          	|	Matrix    	          	          	          	          	|	Matrix    	          	          	          	          	|	Matrix    	|	Matrix    
-3.136E-06	|	 1.267E+00	|	 4.969E+00	|	 4.380E+07	 3.877E+07	 2.208E+04	 2.209E+04	 2.208E+04	|	 1.621E+07	 2.626E+06	 7.995E+04	 8.617E+04	 8.802E+04	|	 6.088E+01	 2.050E+02	 1.591E+02	 4.187E+03	 3.165E+03	|	-1.741E+07	|	 9.748E+05
-1.081E-06	|	 3.832E-08	|	 4.818E-03	|	 3.877E+07	 3.877E+07	 2.208E+04	 2.209E+04	 2.208E+04	|	 2.626E+06	 8.841E+06	 7.995E+04	 8.617E+04	 8.802E+04	|	 6.085E+01	 8.676E+08	 1.591E+02	 4.187E+03	 3.165E+03	|	-1.741E+07	|	 9.748E+05
 1.225E-01	|	 3.839E-01	|	 4.272E+00	|	 2.208E+04	 2.208E+04	 9.475E+02	 0.000E+00	 0.000E+00	|	-2.095E+04	-2.095E+04	 3.843E+03	-6.249E+00	-6.592E+00	|	-5.780E+03	-5.780E+03	 1.937E+04	 2.140E-01	-1.285E-01	|	-4.652E+05	|	 9.307E+03
-4.787E-01	|	-9.781E-02	|	 4.655E+00	|	 2.209E+04	 2.209E+04	 0.000E+00	 9.489E+02	 0.000E+00	|	-2.330E+04	-2.330E+04	 5.265E+00	 4.003E+03	 5.265E+00	|	 2.920E+03	 2.920E+03	 6.418E-01	 1.966E+04	 8.566E-02	|	-4.791E+05	|	 9.713E+03
 3.572E-01	|	-2.859E-01	|	 4.132E+00	|	 2.208E+04	 2.208E+04	 0.000E+00	 0.000E+00	 9.470E+02	|	-2.617E+04	-2.617E+04	 1.883E+00	 1.798E+00	 3.854E+03	|	 2.971E+03	 2.971E+03	 3.422E-01	-2.441E-04	 1.957E+04	|	-4.848E+05	|	 9.356E+03

op Output 	|	This colmn	|	This colmn	|	This matrx	          	          	          	          	|	VelC - Out	          	          	          	          	|	DspC - Out	          	          	          	          	|	D - Trnsmt	|	Dd - DTsmt
Measurmnts	|	is blank  	|	is blank  	|	is blank  	          	          	          	          	|	Matrix    	          	          	          	          	|	Matrix    	          	          	          	          	|	Matrix    	|	Matrix    
 1.210E+01	|	          	|	          	|	          	          	          	          	          	|	 9.549E+00	 9.549E+00	 0.000E+00	 0.000E+00	 0.000E+00	|	 0.000E+00	 0.000E+00	 0.000E+00	 0.000E+00	 0.000E+00	|	 0.000E+00	|	 0.000E+00
 4.969E+00	|	          	|	          	|	          	          	          	          	          	|	 0.000E+00	 0.000E+00	 0.000E+00	 0.000E+00	 0.000E+00	|	 1.000E+00	 0.000E+00	 0.000E+00	 0.000E+00	 0.000E+00	|	 0.000E+00	|	 0.000E+00
 1.267E+00	|	          	|	          	|	          	          	          	          	          	|	 1.000E+00	 0.000E+00	 0.000E+00	 0.000E+00	 0.000E+00	|	 0.000E+00	 0.000E+00	 0.000E+00	 0.000E+00	 0.000E+00	|	 0.000E+00	|	 0.000E+00
 4.818E-03	|	          	|	          	|	          	          	          	          	          	|	 0.000E+00	 0.000E+00	 0.000E+00	 0.000E+00	 0.000E+00	|	 0.000E+00	 1.000E+00	 0.000E+00	 0.000E+00	 0.000E+00	|	 0.000E+00	|	 0.000E+00
 3.832E-08	|	          	|	          	|	          	          	          	          	          	|	 0.000E+00	 1.000E+00	 0.000E+00	 0.000E+00	 0.000E+00	|	 0.000E+00	 0.000E+00	 0.000E+00	 0.000E+00	 0.000E+00	|	 0.000E+00	|	 0.000E+00
 1.174E+03	|	          	|	          	|	          	          	          	          	          	|	 9.263E+02	 0.000E+00	 0.000E+00	 0.000E+00	 0.000E+00	|	 0.000E+00	 0.000E+00	 0.000E+00	 0.000E+00	 0.000E+00	|	 0.000E+00	|	 0.000E+00


--------- Azimuth =  18.00 deg (with respect to AzimB1Up =   0.00 deg) ---------
op        	|	op        	|	op        	|	M - Mass  	          	          	          	          	|	C - Damp  	          	          	          	          	|	K - Stiff 	          	          	          	          	|	F - Input 	|	Fd - Dstrb
Accleratns	|	Velocities	|	Displcmnts	|	Matrix    	          	          	          	          	|	Matrix    	          	          	          	          	|	Matrix    	          	          	          	          	|	Matrix    	|	Matrix    
-3.158E-06	|	 1.267E+00	|	 5.022E+00	|	 4.380E+07	 3.877E+07	 2.208E+04	 2.209E+04	 2.208E+04	|	 1.621E+07	 2.627E+06	 7.973E+04	 8.645E+04	 8.786E+04	|	-1.969E+02	 2.150E+02	 2.039E+02	 4.252E+03	 3.071E+03	|	-1.741E+07	|	 9.746E+05
 4.485E-07	|	 2.096E-08	|	 4.818E-03	|	 3.877E+07	 3.877E+07	 2.208E+04	 2.209E+04	 2.208E+04	|	 2.627E+06	 8.842E+06	 7.973E+04	 8.645E+04	 8.786E+04	|	-1.969E+02	 8.676E+08	 2.039E+02	 4.252E+03	 3.071E+03	|	-1.741E+07	|	 9.746E+05
 9.692E-02	|	 3.884E-01	|	 4.288E+00	|	 2.208E+04	 2.208E+04	 9.476E+02	 0.000E+00	 0.000E+00	|	-2.086E+04	-2.086E+04	 3.846E+03	-6.078E+00	-6.292E+00	|	-5.768E+03	-5.768E+03	 1.938E+04	 1.713E-01	-1.711E-01	|	-4.651E+05	|	 9.317E+03
-4.723E-01	|	-1.175E-01	|	 4.651E+00	|	 2.209E+04	 2.209E+04	 0.000E+00	 9.489E+02	 0.000E+00	|	-2.345E+04	-2.345E+04	 5.564E+00	 4.003E+03	 5.607E+00	|	 3.182E+03	 3.182E+03	 6.422E-01	 1.966E+04	 1.284E-01	|	-4.798E+05	|	 9.714E+03
 3.764E-01	|	-2.707E-01	|	 4.121E+00	|	 2.208E+04	 2.208E+04	 0.000E+00	 0.000E+00	 9.470E+02	|	-2.609E+04	-2.609E+04	 1.455E+00	 1.498E+00	 3.850E+03	|	 2.697E+03	 2.698E+03	 2.565E-01	 2.747E-04	 1.956E+04	|	-4.844E+05	|	 9.345E+03

op Output 	|	This colmn	|	This colmn	|	This matrx	          	          	          	          	|	VelC - Out	          	          	          	          	|	DspC - Out	          	          	          	          	|	D - Trnsmt	|	Dd - DTsmt
Measurmnts	|	is blank  	|	is blank  	|	is blank  	          	          	          	          	|	Matrix    	          	          	          	          	|	Matrix    	          	          	          	          	|	Matrix    	|	Matrix    
 1.210E+01	|	          	|	          	|	          	          	          	          	          	|	 9.549E+00	 9.549E+00	 0.000E+00	 0.000E+00	 0.000E+00	|	 0.000E+00	 0.000E+00	 0.000E+00	 0.000E+00	 0.000E+00	|	 0.000E+00	|	 0.000E+00
 5.022E+00	|	          	|	          	|	          	          	          	          	          	|	 0.000E+00	 0.000E+00	 0.000E+00	 0.000E+00	 0.000E+00	|	 1.000E+00	 0.000E+00	 0.000E+00	 0.000E+00	 0.000E+00	|	 0.000E+00	|	 0.000E+00
 1.267E+00	|	          	|	          	|	          	          	          	          	          	|	 1.000E+00	 0.000E+00	 0.000E+00	 0.000E+00	 0.000E+00	|	 0.000E+00	 0.000E+00	 0.000E+00	 0.000E+00	 0.000E+00	|	 0.000E+00	|	 0.000E+00
 4.818E-03	|	          	|	          	|	          	          	          	          	          	|	 0.000E+00	 0.000E+00	 0.000E+00	 0.000E+00	 0.000E+00	|	 0.000E+00	 1.000E+00	 0.000E+00	 0.000E+00	 0.000E+00	|	 0.000E+00	|	 0.000E+00
 2.096E-08	|	          	|	          	|	          	          	          	          	          	|	 0.000E+00	 1.000E+00	 0.000E+00	 0.000E+00	 0.000E+00	|	 0.000E+00	 0.000E+00	 0.000E+00	 0.000E+00	 0.000E+00	|	 0.000E+00	|	 0.000E+00
 1.174E+03	|	          	|	          	|	          	          	          	          	          	|	 9.263E+02	 0.000E+00	 0.000E+00	 0.000E+00	 0.000E+00	|	 0.000E+00	 0.000E+00	 0.000E+00	 0.000E+00	 0.000E+00	|	 0.000E+00	|	 0.000E+00


--------- Azimuth =  21.00 deg (with respect to AzimB1Up =   0.00 deg) ---------
op        	|	op        	|	op        	|	M - Mass  	          	          	          	          	|	C - Damp  	          	          	          	          	|	K - Stiff 	          	          	          	          	|	F - Input 	|	Fd - Dstrb
Accleratns	|	Velocities	|	Displcmnts	|	Matrix    	          	          	          	          	|	Matrix    	          	          	          	          	|	Matrix    	          	          	          	          	|	Matrix    	|	Matrix    
-2.903E-06	|	 1.267E+00	|	 5.074E+00	|	 4.380E+07	 3.877E+07	 2.208E+04	 2.209E+04	 2.208E+04	|	 1.621E+07	 2.628E+06	 7.984E+04	 8.671E+04	 8.767E+04	|	 1.794E+01	 2.860E+02	 2.500E+02	 4.294E+03	 2.962E+03	|	-1.741E+07	|	 9.743E+05
 1.544E-06	|	 6.368E-08	|	 4.818E-03	|	 3.877E+07	 3.877E+07	 2.208E+04	 2.209E+04	 2.208E+04	|	 2.628E+06	 8.843E+06	 7.984E+04	 8.671E+04	 8.767E+04	|	 1.795E+01	 8.676E+08	 2.499E+02	 4.294E+03	 2.962E+03	|	-1.741E+07	|	 9.743E+05
 7.085E-02	|	 3.919E-01	|	 4.305E+00	|	 2.208E+04	 2.208E+04	 9.476E+02	 0.000E+00	 0.000E+00	|	-2.077E+04	-2.077E+04	 3.852E+03	-5.992E+00	-6.335E+00	|	-5.736E+03	-5.737E+03	 1.938E+04	 1.284E-01	-2.568E-01	|	-4.649E+05	|	 9.327E+03
-4.646E-01	|	-1.368E-01	|	 4.645E+00	|	 2.209E+04	 2.209E+04	 0.000E+00	 9.488E+02	 0.000E+00	|	-2.361E+04	-2.361E+04	 5.864E+00	 4.003E+03	 5.821E+00	|	 3.436E+03	 3.436E+03	 6.420E-01	 1.967E+04	 4.282E-02	|	-4.804E+05	|	 9.715E+03
 3.945E-01	|	-2.548E-01	|	 4.110E+00	|	 2.208E+04	 2.208E+04	 0.000E+00	 0.000E+00	 9.470E+02	|	-2.601E+04	-2.601E+04	 1.070E+00	 1.070E+00	 3.845E+03	|	 2.416E+03	 2.416E+03	 2.140E-01	 6.104E-05	 1.955E+04	|	-4.839E+05	|	 9.334E+03

op Output 	|	This colmn	|	This colmn	|	This matrx	          	          	          	          	|	VelC - Out	          	          	          	          	|	DspC - Out	          	          	          	          	|	D - Trnsmt	|	Dd - DTsmt
Measurmnts	|	is blank  	|	is blank  	|	is blank  	          	          	          	          	|	Matrix    	          	          	          	          	|	Matrix    	          	          	          	          	|	Matrix    	|	Matrix    
 1.210E+01	|	          	|	          	|	          	          	          	          	          	|	 9.549E+00	 9.549E+00	 0.000E+00	 0.000E+00	 0.000E+00	|	 0.000E+00	 0.000E+00	 0.000E+00	 0.000E+00	 0.000E+00	|	 0.000E+00	|	 0.000E+00
 5.074E+00	|	          	|	          	|	          	          	          	          	          	|	 0.000E+00	 0.000E+00	 0.000E+00	 0.000E+00	 0.000E+00	|	 1.000E+00	 0.000E+00	 0.000E+00	 0.000E+00	 0.000E+00	|	 0.000E+00	|	 0.000E+00