
This linearized model file was generated by FAST (v7.02.00d-bjj, 20-Feb-2013) on 17-Oct-2017 at 14:27:32.
The aerodynamic calculations were made by AeroDyn (v13.00.02a-bjj, 20-Feb-2013).

 NREL 5.0 MW Baseline Wind Turbine for Use in Offshore Analysis.


Some Useful Information:

   Type of steady state solution found                Trimmed collective blade pitch (TrimCase = 3)
   Azimuth-average rotor speed, RotSpeed      (rad/s)    1.26711E+00
   Period of steady state solution              (sec)    4.95868E+00
   Iterations needed to find steady state solution      98
   Displacement 2-norm of steady state solution (rad)    2.86103E-06
   Velocity 2-norm of steady state solution   (rad/s)    8.10624E-06
   Number of equally-speced azimuth steps, NAzimStep   120
   Order of linearized model, MdlOrder                   1
   Number of active (enabled) DOFs                       2 ( 4 states)
   Number of control inputs, NInputs                     1
   Number of input wind disturbances, NDisturbs          1
   Number of output measurements                         6


Order of States in Linearized State Matrices:

   Row/column  1 = Variable speed generator DOF (internal DOF index = DOF_GeAz)
   Row/column  2 = Drivetrain rotational-flexibility DOF (internal DOF index = DOF_DrTr)
   Row/column  3 to  4 = First derivatives of row/column  1 to  2.


Order of Control Inputs in Linearized State Matrices:

   Column 1 = rotor collective blade pitch      (rad)    7.06230E-02 op


Order of Input Wind Disturbances in Linearized State Matrices:

   Column 1 = horizontal hub-height wind speed  (m/s) : See selected wind file for op


Order of Output Measurements in Linearized State Matrices:

   Row   1 = RotSpeed   (rpm)     
   Row   2 = Q_GeAz     (rad)     
   Row   3 = QD_GeAz    (rad/s)   
   Row   4 = Q_DrTr     (rad)     
   Row   5 = QD_DrTr    (rad/s)   
   Row   6 = GenSpeed   (rpm)     


Linearized State Matrices:

--------- Azimuth =   0.00 deg (with respect to AzimB1Up =   0.00 deg) ---------
op State  	|	op        	|	A - State 	          	          	          	|	B - Input 	|	Bd - Dstrb
Derivativs	|	States    	|	Matrix    	          	          	          	|	Matrix    	|	Matrix    
 1.267E+00	|	 4.708E+00	|	 0.000E+00	 0.000E+00	 1.000E+00	 0.000E+00	|	 0.000E+00	|	 0.000E+00
 7.176E-08	|	 4.818E-03	|	 0.000E+00	 0.000E+00	 0.000E+00	 1.000E+00	|	 0.000E+00	|	 0.000E+00
 3.403E-06	|	 1.267E+00	|	-9.771E-12	 1.726E+02	-2.702E+00	 1.237E+00	|	 2.501E-07	|	-9.313E-09
 3.587E-07	|	 7.176E-08	|	 4.989E-06	-1.950E+02	 2.634E+00	-1.465E+00	|	-4.456E-01	|	 2.516E-02

op Output 	|	This colmn	|	C - Output	          	          	          	|	D - Trnsmt	|	Dd - DTsmt
Measurmnts	|	is blank  	|	Matrix    	          	          	          	|	Matrix    	|	Matrix    
 1.210E+01	|	          	|	 0.000E+00	 0.000E+00	 9.549E+00	 9.549E+00	|	 0.000E+00	|	 0.000E+00
 4.708E+00	|	          	|	 1.000E+00	 0.000E+00	 0.000E+00	 0.000E+00	|	 0.000E+00	|	 0.000E+00
 1.267E+00	|	          	|	 0.000E+00	 0.000E+00	 1.000E+00	 0.000E+00	|	 0.000E+00	|	 0.000E+00
 4.818E-03	|	          	|	 0.000E+00	 1.000E+00	 0.000E+00	 0.000E+00	|	 0.000E+00	|	 0.000E+00
 7.176E-08	|	          	|	 0.000E+00	 0.000E+00	 0.000E+00	 1.000E+00	|	 0.000E+00	|	 0.000E+00
 1.174E+03	|	          	|	 0.000E+00	 0.000E+00	 9.263E+02	 0.000E+00	|	 0.000E+00	|	 0.000E+00


--------- Azimuth =   3.00 deg (with respect to AzimB1Up =   0.00 deg) ---------
op State  	|	op        	|	A - State 	          	          	          	|	B - Input 	|	Bd - Dstrb
Derivativs	|	States    	|	Matrix    	          	          	          	|	Matrix    	|	Matrix    
 1.267E+00	|	 4.760E+00	|	 0.000E+00	 0.000E+00	 1.000E+00	 0.000E+00	|	 0.000E+00	|	 0.000E+00
 8.097E-08	|	 4.818E-03	|	 0.000E+00	 0.000E+00	 0.000E+00	 1.000E+00	|	 0.000E+00	|	 0.000E+00
 3.990E-06	|	 1.267E+00	|	 0.000E+00	 1.726E+02	-2.702E+00	 1.237E+00	|	 1.501E-07	|	-1.746E-08
 1.003E-07	|	 8.097E-08	|	 1.007E-05	-1.950E+02	 2.634E+00	-1.465E+00	|	-4.455E-01	|	 2.517E-02

op Output 	|	This colmn	|	C - Output	          	          	          	|	D - Trnsmt	|	Dd - DTsmt
Measurmnts	|	is blank  	|	Matrix    	          	          	          	|	Matrix    	|	Matrix    
 1.210E+01	|	          	|	 0.000E+00	 0.000E+00	 9.549E+00	 9.549E+00	|	 0.000E+00	|	 0.000E+00
 4.760E+00	|	          	|	 1.000E+00	 0.000E+00	 0.000E+00	 0.000E+00	|	 0.000E+00	|	 0.000E+00
 1.267E+00	|	          	|	 0.000E+00	 0.000E+00	 1.000E+00	 0.000E+00	|	 0.000E+00	|	 0.000E+00
 4.818E-03	|	          	|	 0.000E+00	 1.000E+00	 0.000E+00	 0.000E+00	|	 0.000E+00	|	 0.000E+00
 8.097E-08	|	          	|	 0.000E+00	 0.000E+00	 0.000E+00	 1.000E+00	|	 0.000E+00	|	 0.000E+00
 1.174E+03	|	          	|	 0.000E+00	 0.000E+00	 9.263E+02	 0.000E+00	|	 0.000E+00	|	 0.000E+00


--------- Azimuth =   6.00 deg (with respect to AzimB1Up =   0.00 deg) ---------
op State  	|	op        	|	A - State 	          	          	          	|	B - Input 	|	Bd - Dstrb
Derivativs	|	States    	|	Matrix    	          	          	          	|	Matrix    	|	Matrix    
 1.267E+00	|	 4.812E+00	|	 0.000E+00	 0.000E+00	 1.000E+00	 0.000E+00	|	 0.000E+00	|	 0.000E+00
 8.440E-08	|	 4.818E-03	|	 0.000E+00	 0.000E+00	 0.000E+00	 1.000E+00	|	 0.000E+00	|	 0.000E+00
 4.541E-06	|	 1.267E+00	|	-1.954E-11	 1.726E+02	-2.702E+00	 1.237E+00	|	 2.335E-07	|	-8.149E-09
 1.617E-07	|	 8.440E-08	|	 1.146E-05	-1.950E+02	 2.634E+00	-1.465E+00	|	-4.455E-01	|	 2.516E-02

op Output 	|	This colmn	|	C - Output	          	          	          	|	D - Trnsmt	|	Dd - DTsmt
Measurmnts	|	is blank  	|	Matrix    	          	          	          	|	Matrix    	|	Matrix    
 1.210E+01	|	          	|	 0.000E+00	 0.000E+00	 9.549E+00	 9.549E+00	|	 0.000E+00	|	 0.000E+00
 4.812E+00	|	          	|	 1.000E+00	 0.000E+00	 0.000E+00	 0.000E+00	|	 0.000E+00	|	 0.000E+00
 1.267E+00	|	          	|	 0.000E+00	 0.000E+00	 1.000E+00	 0.000E+00	|	 0.000E+00	|	 0.000E+00
 4.818E-03	|	          	|	 0.000E+00	 1.000E+00	 0.000E+00	 0.000E+00	|	 0.000E+00	|	 0.000E+00
 8.440E-08	|	          	|	 0.000E+00	 0.000E+00	 0.000E+00	 1.000E+00	|	 0.000E+00	|	 0.000E+00
 1.174E+03	|	          	|	 0.000E+00	 0.000E+00	 9.263E+02	 0.000E+00	|	 0.000E+00	|	 0.000E+00


--------- Azimuth =   9.00 deg (with respect to AzimB1Up =   0.00 deg) ---------
op State  	|	op        	|	A - State 	          	          	          	|	B - Input 	|	Bd - Dstrb
Derivativs	|	States    	|	Matrix    	          	          	          	|	Matrix    	|	Matrix    
 1.267E+00	|	 4.865E+00	|	 0.000E+00	 0.000E+00	 1.000E+00	 0.000E+00	|	 0.000E+00	|	 0.000E+00
 8.511E-08	|	 4.818E-03	|	 0.000E+00	 0.000E+00	 0.000E+00	 1.000E+00	|	 0.000E+00	|	 0.000E+00
 5.079E-06	|	 1.267E+00	|	-3.908E-11	 1.726E+02	-2.702E+00	 1.237E+00	|	-1.501E-07	|	 1.164E-08
-6.272E-08	|	 8.511E-08	|	 7.946E-06	-1.950E+02	 2.634E+00	-1.465E+00	|	-4.457E-01	|	 2.516E-02

op Output 	|	This colmn	|	C - Output	          	          	          	|	D - Trnsmt	|	Dd - DTsmt
Measurmnts	|	is blank  	|	Matrix    	          	          	          	|	Matrix    	|	Matrix    
 1.210E+01	|	          	|	 0.000E+00	 0.000E+00	 9.549E+00	 9.549E+00	|	 0.000E+00	|	 0.000E+00
 4.865E+00	|	          	|	 1.000E+00	 0.000E+00	 0.000E+00	 0.000E+00	|	 0.000E+00	|	 0.000E+00
 1.267E+00	|	          	|	 0.000E+00	 0.000E+00	 1.000E+00	 0.000E+00	|	 0.000E+00	|	 0.000E+00
 4.818E-03	|	          	|	 0.000E+00	 1.000E+00	 0.000E+00	 0.000E+00	|	 0.000E+00	|	 0.000E+00
 8.511E-08	|	          	|	 0.000E+00	 0.000E+00	 0.000E+00	 1.000E+00	|	 0.000E+00	|	 0.000E+00
 1.174E+03	|	          	|	 0.000E+00	 0.000E+00	 9.263E+02	 0.000E+00	|	 0.000E+00	|	 0.000E+00


--------- Azimuth =  12.00 deg (with respect to AzimB1Up =   0.00 deg) ---------
op State  	|	op        	|	A - State 	          	          	          	|	B - Input 	|	Bd - Dstrb
Derivativs	|	States    	|	Matrix    	          	          	          	|	Matrix    	|	Matrix    
 1.267E+00	|	 4.917E+00	|	 0.000E+00	 0.000E+00	 1.000E+00	 0.000E+00	|	 0.000E+00	|	 0.000E+00
 7.566E-08	|	 4.818E-03	|	 0.000E+00	 0.000E+00	 0.000E+00	 1.000E+00	|	 0.000E+00	|	 0.000E+00
 5.653E-06	|	 1.267E+00	|	-7.165E-11	 1.726E+02	-2.702E+00	 1.237E+00	|	 1.001E-07	|	-1.048E-08
-4.177E-07	|	 7.566E-08	|	 6.837E-06	-1.950E+02	 2.634E+00	-1.465E+00	|	-4.459E-01	|	 2.517E-02

op Output 	|	This colmn	|	C - Output	          	          	          	|	D - Trnsmt	|	Dd - DTsmt
Measurmnts	|	is blank  	|	Matrix    	          	          	          	|	Matrix    	|	Matrix    
 1.210E+01	|	          	|	 0.000E+00	 0.000E+00	 9.549E+00	 9.549E+00	|	 0.000E+00	|	 0.000E+00
 4.917E+00	|	          	|	 1.000E+00	 0.000E+00	 0.000E+00	 0.000E+00	|	 0.000E+00	|	 0.000E+00
 1.267E+00	|	          	|	 0.000E+00	 0.000E+00	 1.000E+00	 0.000E+00	|	 0.000E+00	|	 0.000E+00
 4.818E-03	|	          	|	 0.000E+00	 1.000E+00	 0.000E+00	 0.000E+00	|	 0.000E+00	|	 0.000E+00
 7.566E-08	|	          	|	 0.000E+00	 0.000E+00	 0.000E+00	 1.000E+00	|	 0.000E+00	|	 0.000E+00
 1.174E+03	|	          	|	 0.000E+00	 0.000E+00	 9.263E+02	 0.000E+00	|	 0.000E+00	|	 0.000E+00


--------- Azimuth =  15.00 deg (with respect to AzimB1Up =   0.00 deg) ---------
op State  	|	op        	|	A - State 	          	          	          	|	B - Input 	|	Bd - Dstrb
Derivativs	|	States    	|	Matrix    	          	          	          	|	Matrix    	|	Matrix    
 1.267E+00	|	 4.969E+00	|	 0.000E+00	 0.000E+00	 1.000E+00	 0.000E+00	|	 0.000E+00	|	 0.000E+00
 5.385E-08	|	 4.818E-03	|	 0.000E+00	 0.000E+00	 0.000E+00	 1.000E+00	|	 0.000E+00	|	 0.000E+00
 6.162E-06	|	 1.267E+00	|	-3.908E-11	 1.726E+02	-2.702E+00	 1.237E+00	|	 1.167E-07	|	-8.149E-09
-6.220E-07	|	 5.385E-08	|	 9.516E-06	-1.950E+02	 2.634E+00	-1.465E+00	|	-4.459E-01	|	 2.517E-02

op Output 	|	This colmn	|	C - Output	          	          	          	|	D - Trnsmt	|	Dd - DTsmt
Measurmnts	|	is blank  	|	Matrix    	          	          	          	|	Matrix    	|	Matrix    
 1.210E+01	|	          	|	 0.000E+00	 0.000E+00	 9.549E+00	 9.549E+00	|	 0.000E+00	|	 0.000E+00
 4.969E+00	|	          	|	 1.000E+00	 0.000E+00	 0.000E+00	 0.000E+00	|	 0.000E+00	|	 0.000E+00
 1.267E+00	|	          	|	 0.000E+00	 0.000E+00	 1.000E+00	 0.000E+00	|	 0.000E+00	|	 0.000E+00
 4.818E-03	|	          	|	 0.000E+00	 1.000E+00	 0.000E+00	 0.000E+00	|	 0.000E+00	|	 0.000E+00
 5.385E-08	|	          	|	 0.000E+00	 0.000E+00	 0.000E+00	 1.000E+00	|	 0.000E+00	|	 0.000E+00
 1.174E+03	|	          	|	 0.000E+00	 0.000E+00	 9.263E+02	 0.000E+00	|	 0.000E+00	|	 0.000E+00


--------- Azimuth =  18.00 deg (with respect to AzimB1Up =   0.00 deg) ---------
op State  	|	op        	|	A - State 	          	          	          	|	B - Input 	|	Bd - Dstrb
Derivativs	|	States    	|	Matrix    	          	          	          	|	Matrix    	|	Matrix    
 1.267E+00	|	 5.022E+00	|	 0.000E+00	 0.000E+00	 1.000E+00	 0.000E+00	|	 0.000E+00	|	 0.000E+00
 2.988E-08	|	 4.818E-03	|	 0.000E+00	 0.000E+00	 0.000E+00	 1.000E+00	|	 0.000E+00	|	 0.000E+00
 6.454E-06	|	 1.267E+00	|	-1.954E-11	 1.726E+02	-2.702E+00	 1.237E+00	|	-1.834E-07	|	 1.746E-08
-3.832E-07	|	 2.988E-08	|	 1.275E-05	-1.950E+02	 2.634E+00	-1.465E+00	|	-4.459E-01	|	 2.517E-02

op Output 	|	This colmn	|	C - Output	          	          	          	|	D - Trnsmt	|	Dd - DTsmt
Measurmnts	|	is blank  	|	Matrix    	          	          	          	|	Matrix    	|	Matrix    
 1.210E+01	|	          	|	 0.000E+00	 0.000E+00	 9.549E+00	 9.549E+00	|	 0.000E+00	|	 0.000E+00
 5.022E+00	|	          	|	 1.000E+00	 0.000E+00	 0.000E+00	 0.000E+00	|	 0.000E+00	|	 0.000E+00
 1.267E+00	|	          	|	 0.000E+00	 0.000E+00	 1.000E+00	 0.000E+00	|	 0.000E+00	|	 0.000E+00
 4.818E-03	|	          	|	 0.000E+00	 1.000E+00	 0.000E+00	 0.000E+00	|	 0.000E+00	|	 0.000E+00
 2.988E-08	|	          	|	 0.000E+00	 0.000E+00	 0.000E+00	 1.000E+00	|	 0.000E+00	|	 0.000E+00
 1.174E+03	|	          	|	 0.000E+00	 0.000E+00	 9.263E+02	 0.000E+00	|	 0.000E+00	|	 0.000E+00


--------- Azimuth =  21.00 deg (with respect to AzimB1Up =   0.00 deg) ---------
op State  	|	op        	|	A - State 	          	          	          	|	B - Input 	|	Bd - Dstrb
Derivativs	|	States    	|	Matrix    	          	          	          	|	Matrix    	|	Matrix    
 1.267E+00	|	 5.074E+00	|	 0.000E+00	 0.000E+00	 1.000E+00	 0.000E+00	|	 0.000E+00	|	 0.000E+00
 2.817E-08	|	 4.818E-03	|	 0.000E+00	 0.000E+00	 0.000E+00	 1.000E+00	|	 0.000E+00	|	 0.000E+00
 6.452E-06	|	 1.267E+00	|	-4.560E-11	 1.726E+02	-2.702E+00	 1.237E+00	|	-2.001E-07	|	 8.149E-09
 7.705E-07	|	 2.817E-08	|	 2.827E-05	-1.950E+02	 2.634E+00	-1.465E+00	|	-4.458E-01	|	 2.516E-02

op Output 	|	This colmn	|	C - Output	          	          	          	|	D - Trnsmt	|	Dd - DTsmt
Measurmnts	|	is blank  	|	Matrix    	          	          	          	|	Matrix    	|	Matrix    
 1.210E+01	|	          	|	 0.000E+00	 0.000E+00	 9.549E+00	 9.549E+00	|	 0.000E+00	|	 0.000E+00
 5.074E+00	|	          	|	 1.000E+00	 0.000E+00	 0.000E+00	 0.000E+00	|	 0.000E+00	|	 0.000E+00
 1.267E+00	|	          	|	 0.000E+00	 0.000E+00	 1.000E+00	 0.000E+00	|	 0.000E+00	|	 0.000E+00
 4.818E-03	|	          	|	 0.000E+00	 1.000E+00	 0.000E+00	 0.000E+00	|	 0.000E+00	|	 0.000E+00
 2.817E-08	|	          	|	 0.000E+00	 0.000E+00	 0.000E+00	 1.000E+00	|	 0.000E+00	|	 0.000E+00
 1.174E+03	|	          	|	 0.000E+00	 0.000E+00	 9.263E+02	 0.000E+00	|	 0.000E+00	|	 0.000E+00


--------- Azimuth =  24.00 deg (with respect to AzimB1Up =   0.00 deg) ---------
op State  	|	op        	|	A - State 	          	          	          	|	B - Input 	|	Bd - Dstrb
Derivativs	|	States    	|	Matrix    	          	          	          	|	Matrix    	|	Matrix    
 1.267E+00	|	 5.126E+00	|	 0.000E+00	 0.000E+00	 1.000E+00	 0.000E+00	|	 0.000E+00	|	 0.000E+00
 8.306E-08	|	 4.818E-03	|	 0.000E+00	 0.000E+00	 0.000E+00	 1.000E+00	|	 0.000E+00	|	 0.000E+00
 6.990E-06	|	 1.267E+00	|	-2.606E-11	 1.726E+02	-2.702E+00	 1.237E+00	|	 1.834E-07	|	-1.513E-08
 1.519E-06	|	 8.306E-08	|	 2.116E-05	-1.950E+02	 2.634E+00	-1.465E+00	|	-4.457E-01	|	 2.515E-02

op Output 	|	This colmn	|	C - Output	          	          	          	|	D - Trnsmt	|	Dd - DTsmt
Measurmnts	|	is blank  	|	Matrix    	          	          	          	|	Matrix    	|	Matrix    
 1.210E+01	|	          	|	 0.000E+00	 0.000E+00	 9.549E+00	 9.549E+00	|	 0.000E+00	|	 0.000E+00
 5.126E+00	|	          	|	 1.000E+00	 0.000E+00	 0.000E+00	 0.000E+00	|	 0.000E+00	|	 0.000E+00
 1.267E+00	|	          	|	 0.000E+00	 0.000E+00	 1.000E+00	 0.000E+00	|	 0.000E+00	|	 0.000E+00
 4.818E-03	|	          	|	 0.000E+00	 1.000E+00	 0.000E+00	 0.000E+00	|	 0.000E+00	|	 0.000E+00
 8.306E-08	|	          	|	 0.000E+00	 0.000E+00	 0.000E+00	 1.000E+00	|	 0.000E+00	|	 0.000E+00
 1.174E+03	|	          	|	 0.000E+00	 0.000E+00	 9.263E+02	 0.000E+00	|	 0.000E+00	|	 0.000E+00


--------- Azimuth =  27.00 deg (with respect to AzimB1Up =   0.00 deg) ---------
op State  	|	op        	|	A - State 	          	          	          	|	B - Input 	|	Bd - Dstrb
Derivativs	|	States    	|	Matrix    	          	          	          	|	Matrix    	|	Matrix    
 1.267E+00	|	 5.179E+00	|	 0.000E+00	 0.000E+00	 1.000E+00	 0.000E+00	|	 0.000E+00	|	 0.000E+00
 1.504E-07	|	 4.818E-03	|	 0.000E+00	 0.000E+00	 0.000E+00	 1.000E+00	|	 0.000E+00	|	 0.000E+00
 7.897E-06	|	 1.267E+00	|	 2.606E-11	 1.726E+02	-2.702E+00	 1.237E+00	|	 2.168E-07	|	-6.985E-09
 1.367E-06	|	 1.504E-07	|	 7.668E-06	-1.950E+02	 2.634E+00	-1.465E+00	|	-4.455E-01	|	 2.515E-02

op Output 	|	This colmn	|	C - Output	          	          	          	|	D - Trnsmt	|	Dd - DTsmt
Measurmnts	|	is blank  	|	Matrix    	          	          	          	|	Matrix    	|	Matrix    
 1.210E+01	|	          	|	 0.000E+00	 0.000E+00	 9.549E+00	 9.549E+00	|	 0.000E+00	|	 0.000E+00
 5.179E+00	|	          	|	 1.000E+00	 0.000E+00	 0.000E+00	 0.000E+00	|	 0.000E+00	|	 0.000E+00
 1.267E+00	|	          	|	 0.000E+00	 0.000E+00	 1.000E+00	 0.000E+00	|	 0.000E+00	|	 0.000E+00
 4.818E-03	|	          	|	 0.000E+00	 1.000E+00	 0.000E+00	 0.000E+00	|	 0.000E+00	|	 0.000E+00
 1.504E-07	|	          	|	 0.000E+00	 0.000E+00	 0.000E+00	 1.000E+00	|	 0.000E+00	|	 0.000E+00
 1.174E+03	|	          	|	 0.000E+00	 0.000E+00	 9.263E+02	 0.000E+00	|	 0.000E+00	|	 0.000E+00


--------- Azimuth =  30.00 deg (with respect to AzimB1Up =   0.00 deg) ---------
op State  	|	op        	|	A - State 	          	          	          	|	B - Input 	|	Bd - Dstrb
Derivativs	|	States    	|	Matrix    	          	          	          	|	Matrix    	|	Matrix    
 1.267E+00	|	 5.231E+00	|	 0.000E+00	 0.000E+00	 1.000E+00	 0.000E+00	|	 0.000E+00	|	 0.000E+00
 1.802E-07	|	 4.818E-03	|	 0.000E+00	 0.000E+00	 0.000E+00	 1.000E+00	|	 0.000E+00	|	 0.000E+00
 9.023E-06	|	 1.267E+00	|	 2.606E-11	 1.726E+02	-2.702E+00	 1.237E+00	|	-5.003E-08	|	 6.985E-09
 8.649E-08	|	 1.802E-07	|	 2.956E-06	-1.950E+02	 2.634E+00	-1.465E+00	|	-4.455E-01	|	 2.515E-02

op Output 	|	This colmn	|	C - Output	          	          	          	|	D - Trnsmt	|	Dd - DTsmt
Measurmnts	|	is blank  	|	Matrix    	          	          	          	|	Matrix    	|	Matrix    
 1.210E+01	|	          	|	 0.000E+00	 0.000E+00	 9.549E+00	 9.549E+00	|	 0.000E+00	|	 0.000E+00
 5.231E+00	|	          	|	 1.000E+00	 0.000E+00	 0.000E+00	 0.000E+00	|	 0.000E+00	|	 0.000E+00
 1.267E+00	|	          	|	 0.000E+00	 0.000E+00	 1.000E+00	 0.000E+00	|	 0.000E+00	|	 0.000E+00
 4.818E-03	|	          	|	 0.000E+00	 1.000E+00	 0.000E+00	 0.000E+00	|	 0.000E+00	|	 0.000E+00
 1.802E-07	|	          	|	 0.000E+00	 0.000E+00	 0.000E+00	 1.000E+00	|	 0.000E+00	|	 0.000E+00
 1.174E+03	|	          	|	 0.000E+00	 0.000E+00	 9.263E+02	 0.000E+00	|	 0.000E+00	|	 0.000E+00


--------- Azimuth =  33.00 deg (with respect to AzimB1Up =   0.00 deg) ---------
op State  	|	op        	|	A - State 	          	          	          	|	B - Input 	|	Bd - Dstrb
Derivativs	|	States    	|	Matrix    	          	          	          	|	Matrix    	|	Matrix    
 1.267E+00	|	 5.284E+00	|	 0.000E+00	 0.000E+00	 1.000E+00	 0.000E+00	|	 0.000E+00	|	 0.000E+00
 1.616E-07	|	 4.818E-03	|	 0.000E+00	 0.000E+00	 0.000E+00	 1.000E+00	|	 0.000E+00	|	 0.000E+00
 1.012E-05	|	 1.267E+00	|	-9.119E-11	 1.726E+02	-2.702E+00	 1.237E+00	|	 1.001E-07	|	-6.985E-09
-9.731E-07	|	 1.616E-07	|	-4.989E-06	-1.950E+02	 2.634E+00	-1.465E+00	|	-4.455E-01	|	 2.515E-02

op Output 	|	This colmn	|	C - Output	          	          	          	|	D - Trnsmt	|	Dd - DTsmt
Measurmnts	|	is blank  	|	Matrix    	          	          	          	|	Matrix    	|	Matrix    
 1.210E+01	|	          	|	 0.000E+00	 0.000E+00	 9.549E+00	 9.549E+00	|	 0.000E+00	|	 0.000E+00
 5.284E+00	|	          	|	 1.000E+00	 0.000E+00	 0.000E+00	 0.000E+00	|	 0.000E+00	|	 0.000E+00
 1.267E+00	|	          	|	 0.000E+00	 0.000E+00	 1.000E+00	 0.000E+00	|	 0.000E+00	|	 0.000E+00
 4.818E-03	|	          	|	 0.000E+00	 1.000E+00	 0.000E+00	 0.000E+00	|	 0.000E+00	|	 0.000E+00
 1.616E-07	|	          	|	 0.000E+00	 0.000E+00	 0.000E+00	 1.000E+00	|	 0.000E+00	|	 0.000E+00
 1.174E+03	|	          	|	 0.000E+00	 0.000E+00	 9.263E+02	 0.000E+00	|	 0.000E+00	|	 0.000E+00


--------- Azimuth =  36.00 deg (with respect to AzimB1Up =   0.00 deg) ---------
op State  	|	op        	|	A - State 	          	          	          	|	B - Input 	|	Bd - Dstrb
Derivativs	|	States    	|	Matrix    	          	          	          	|	Matrix    	|	Matrix    
 1.267E+00	|	 5.336E+00	|	 0.000E+00	 0.000E+00	 1.000E+00	 0.000E+00	|	 0.000E+00	|	 0.000E+00
 8.250E-08	|	 4.818E-03	|	 0.000E+00	 0.000E+00	 0.000E+00	 1.000E+00	|	 0.000E+00	|	 0.000E+00
 1.095E-05	|	 1.267E+00	|	-1.303E-11	 1.726E+02	-2.702E+00	 1.237E+00	|	-6.670E-08	|	 8.149E-09
-2.777E-06	|	 8.250E-08	|	-1.534E-05	-1.950E+02	 2.634E+00	-1.465E+00	|	-4.456E-01	|	 2.515E-02

op Output 	|	This colmn	|	C - Output	          	          	          	|	D - Trnsmt	|	Dd - DTsmt
Measurmnts	|	is blank  	|	Matrix    	          	          	          	|	Matrix    	|	Matrix    
 1.210E+01	|	          	|	 0.000E+00	 0.000E+00	 9.549E+00	 9.549E+00	|	 0.000E+00	|	 0.000E+00
 5.336E+00	|	          	|	 1.000E+00	 0.000E+00	 0.000E+00	 0.000E+00	|	 0.000E+00	|	 0.000E+00
 1.267E+00	|	          	|	 0.000E+00	 0.000E+00	 1.000E+00	 0.000E+00	|	 0.000E+00	|	 0.000E+00
 4.818E-03	|	          	|	 0.000E+00	 1.000E+00	 0.000E+00	 0.000E+00	|	 0.000E+00	|	 0.000E+00
 8.250E-08	|	          	|	 0.000E+00	 0.000E+00	 0.000E+00	 1.000E+00	|	 0.000E+00	|	 0.000E+00
 1.174E+03	|	          	|	 0.000E+00	 0.000E+00	 9.263E+02	 0.000E+00	|	 0.000E+00	|	 0.000E+00


--------- Azimuth =  39.00 deg (with respect to AzimB1Up =   0.00 deg) ---------
op State  	|	op        	|	A - State 	          	          	          	|	B - Input 	|	Bd - Dstrb
Derivativs	|	States    	|	Matrix    	          	          	          	|	Matrix    	|	Matrix    
 1.267E+00	|	 5.388E+00	|	 0.000E+00	 0.000E+00	 1.000E+00	 0.000E+00	|	 0.000E+00	|	 0.000E+00
-5.201E-08	|	 4.818E-03	|	 0.000E+00	 0.000E+00	 0.000E+00	 1.000E+00	|	 0.000E+00	|	 0.000E+00
 1.089E-05	|	 1.267E+00	|	-1.303E-11	 1.726E+02	-2.702E+00	 1.237E+00	|	 2.168E-07	|	-6.985E-09
-3.441E-06	|	-5.201E-08	|	-1.192E-05	-1.950E+02	 2.634E+00	-1.465E+00	|	-4.459E-01	|	 2.516E-02

op Output 	|	This colmn	|	C - Output	          	          	          	|	D - Trnsmt	|	Dd - DTsmt
Measurmnts	|	is blank  	|	Matrix    	          	          	          	|	Matrix    	|	Matrix    
 1.210E+01	|	          	|	 0.000E+00	 0.000E+00	 9.549E+00	 9.549E+00	|	 0.000E+00	|	 0.000E+00
 5.388E+00	|	          	|	 1.000E+00	 0.000E+00	 0.000E+00	 0.000E+00	|	 0.000E+00	|	 0.000E+00
 1.267E+00	|	          	|	 0.000E+00	 0.000E+00	 1.000E+00	 0.000E+00	|	 0.000E+00	|	 0.000E+00
 4.818E-03	|	          	|	 0.000E+00	 1.000E+00	 0.000E+00	 0.000E+00	|	 0.000E+00	|	 0.000E+00
-5.201E-08	|	          	|	 0.000E+00	 0.000E+00	 0.000E+00	 1.000E+00	|	 0.000E+00	|	 0.000E+00
 1.174E+03	|	          	|	 0.000E+00	 0.000E+00	 9.263E+02	 0.000E+00	|	 0.000E+00	|	 0.000E+00


--------- Azimuth =  42.00 deg (with respect to AzimB1Up =   0.00 deg) ---------
op State  	|	op        	|	A - State 	          	          	          	|	B - Input 	|	Bd - Dstrb
Derivativs	|	States    	|	Matrix    	          	          	          	|	Matrix    	|	Matrix    
 1.267E+00	|	 5.441E+00	|	 0.000E+00	 0.000E+00	 1.000E+00	 0.000E+00	|	 0.000E+00	|	 0.000E+00
-1.880E-07	|	 4.818E-03	|	 0.000E+00	 0.000E+00	 0.000E+00	 1.000E+00	|	 0.000E+00	|	 0.000E+00
 9.847E-06	|	 1.267E+00	|	 1.303E-11	 1.726E+02	-2.702E+00	 1.237E+00	|	-8.338E-08	|	 3.492E-09
-2.851E-06	|	-1.880E-07	|	-3.973E-06	-1.950E+02	 2.634E+00	-1.465E+00	|	-4.459E-01	|	 2.517E-02

op Output 	|	This colmn	|	C - Output	          	          	          	|	D - Trnsmt	|	Dd - DTsmt
Measurmnts	|	is blank  	|	Matrix    	          	          	          	|	Matrix    	|	Matrix    
 1.210E+01	|	          	|	 0.000E+00	 0.000E+00	 9.549E+00	 9.549E+00	|	 0.000E+00	|	 0.000E+00
 5.441E+00	|	          	|	 1.000E+00	 0.000E+00	 0.000E+00	 0.000E+00	|	 0.000E+00	|	 0.000E+00
 1.267E+00	|	          	|	 0.000E+00	 0.000E+00	 1.000E+00	 0.000E+00	|	 0.000E+00	|	 0.000E+00
 4.818E-03	|	          	|	 0.000E+00	 1.000E+00	 0.000E+00	 0.000E+00	|	 0.000E+00	|	 0.000E+00
-1.880E-07	|	          	|	 0.000E+00	 0.000E+00	 0.000E+00	 1.000E+00	|	 0.000E+00	|	 0.000E+00
 1.174E+03	|	          	|	 0.000E+00	 0.000E+00	 9.263E+02	 0.000E+00	|	 0.000E+00	|	 0.000E+00


--------- Azimuth =  45.00 deg (with respect to AzimB1Up =   0.00 deg) ---------
op State  	|	op        	|	A - State 	          	          	          	|	B - Input 	|	Bd - Dstrb
Derivativs	|	States    	|	Matrix    	          	          	          	|	Matrix    	|	Matrix    
 1.267E+00	|	 5.493E+00	|	 0.000E+00	 0.000E+00	 1.000E+00	 0.000E+00	|	 0.000E+00	|	 0.000E+00
-2.664E-07	|	 4.818E-03	|	 0.000E+00	 0.000E+00	 0.000E+00	 1.000E+00	|	 0.000E+00	|	 0.000E+00
 8.106E-06	|	 1.267E+00	|	 3.908E-11	 1.726E+02	-2.702E+00	 1.237E+00	|	-1.167E-07	|	 9.313E-09
-9.288E-07	|	-2.664E-07	|	-1.294E-06	-1.950E+02	 2.634E+00	-1.465E+00	|	-4.459E-01	|	 2.517E-02

op Output 	|	This colmn	|	C - Output	          	          	          	|	D - Trnsmt	|	Dd - DTsmt
Measurmnts	|	is blank  	|	Matrix    	          	          	          	|	Matrix    	|	Matrix    
 1.210E+01	|	          	|	 0.000E+00	 0.000E+00	 9.549E+00	 9.549E+00	|	 0.000E+00	|	 0.000E+00
 5.493E+00	|	          	|	 1.000E+00	 0.000E+00	 0.000E+00	 0.000E+00	|	 0.000E+00	|	 0.000E+00
 1.267E+00	|	          	|	 0.000E+00	 0.000E+00	 1.000E+00	 0.000E+00	|	 0.000E+00	|	 0.000E+00
 4.818E-03	|	          	|	 0.000E+00	 1.000E+00	 0.000E+00	 0.000E+00	|	 0.000E+00	|	 0.000E+00
-2.664E-07	|	          	|	 0.000E+00	 0.000E+00	 0.000E+00	 1.000E+00	|	 0.000E+00	|	 0.000E+00
 1.174E+03	|	          	|	 0.000E+00	 0.000E+00	 9.263E+02	 0.000E+00	|	 0.000E+00	|	 0.000E+00


--------- Azimuth =  48.00 deg (with respect to AzimB1Up =   0.00 deg) ---------
op State  	|	op        	|	A - State 	          	          	          	|	B - Input 	|	Bd - Dstrb
Derivativs	|	States    	|	Matrix    	          	          	          	|	Matrix    	|	Matrix    
 1.267E+00	|	 5.545E+00	|	 0.000E+00	 0.000E+00	 1.000E+00	 0.000E+00	|	 0.000E+00	|	 0.000E+00
-2.613E-07	|	 4.818E-03	|	 0.000E+00	 0.000E+00	 0.000E+00	 1.000E+00	|	 0.000E+00	|	 0.000E+00
 6.150E-06	|	 1.267E+00	|	-3.908E-11	 1.726E+02	-2.702E+00	 1.237E+00	|	 2.001E-07	|	-4.657E-09
 1.148E-06	|	-2.613E-07	|	-8.407E-06	-1.950E+02	 2.634E+00	-1.465E+00	|	-4.460E-01	|	 2.517E-02

op Output 	|	This colmn	|	C - Output	          	          	          	|	D - Trnsmt	|	Dd - DTsmt
Measurmnts	|	is blank  	|	Matrix    	          	          	          	|	Matrix    	|	Matrix    
 1.210E+01	|	          	|	 0.000E+00	 0.000E+00	 9.549E+00	 9.549E+00	|	 0.000E+00	|	 0.000E+00
 5.545E+00	|	          	|	 1.000E+00	 0.000E+00	 0.000E+00	 0.000E+00	|	 0.000E+00	|	 0.000E+00
 1.267E+00	|	          	|	 0.000E+00	 0.000E+00	 1.000E+00	 0.000E+00	|	 0.000E+00	|	 0.000E+00
 4.818E-03	|	          	|	 0.000E+00	 1.000E+00	 0.000E+00	 0.000E+00	|	 0.000E+00	|	 0.000E+00
-2.613E-07	|	          	|	 0.000E+00	 0.000E+00	 0.000E+00	 1.000E+00	|	 0.000E+00	|	 0.000E+00
 1.174E+03	|	          	|	 0.000E+00	 0.000E+00	 9.263E+02	 0.000E+00	|	 0.000E+00	|	 0.000E+00


--------- Azimuth =  51.00 deg (with respect to AzimB1Up =   0.00 deg) ---------
op State  	|	op        	|	A - State 	          	          	          	|	B - Input 	|	Bd - Dstrb
Derivativs	|	States    	|	Matrix    	          	          	          	|	Matrix    	|	Matrix    
 1.267E+00	|	 5.598E+00	|	 0.000E+00	 0.000E+00	 1.000E+00	 0.000E+00	|	 0.000E+00	|	 0.000E+00
-1.944E-07	|	 4.818E-03	|	 0.000E+00	 0.000E+00	 0.000E+00	 1.000E+00	|	 0.000E+00	|	 0.000E+00
 4.615E-06	|	 1.267E+00	|	-5.862E-11	 1.726E+02	-2.702E+00	 1.237E+00	|	-1.834E-07	|	 1.863E-08
 2.390E-06	|	-1.944E-07	|	 9.147E-06	-1.950E+02	 2.634E+00	-1.465E+00	|	-4.460E-01	|	 2.517E-02

op Output 	|	This colmn	|	C - Output	          	          	          	|	D - Trnsmt	|	Dd - DTsmt
Measurmnts	|	is blank  	|	Matrix    	          	          	          	|	Matrix    	|	Matrix    
 1.210E+01	|	          	|	 0.000E+00	 0.000E+00	 9.549E+00	 9.549E+00	|	 0.000E+00	|	 0.000E+00
 5.598E+00	|	          	|	 1.000E+00	 0.000E+00	 0.000E+00	 0.000E+00	|	 0.000E+00	|	 0.000E+00
 1.267E+00	|	          	|	 0.000E+00	 0.000E+00	 1.000E+00	 0.000E+00	|	 0.000E+00	|	 0.000E+00
 4.818E-03	|	          	|	 0.000E+00	 1.000E+00	 0.000E+00	 0.000E+00	|	 0.000E+00	|	 0.000E+00
-1.944E-07	|	          	|	 0.000E+00	 0.000E+00	 0.000E+00	 1.000E+00	|	 0.000E+00	|	 0.000E+00
 1.174E+03	|	          	|	 0.000E+00	 0.000E+00	 9.263E+02	 0.000E+00	|	 0.000E+00	|	 0.000E+00


--------- Azimuth =  54.00 deg (with respect to AzimB1Up =   0.00 deg) ---------
op State  	|	op        	|	A - State 	          	          	          	|	B - Input 	|	Bd - Dstrb
Derivativs	|	States    	|	Matrix    	          	          	          	|	Matrix    	|	Matrix    
 1.267E+00	|	 5.650E+00	|	 0.000E+00	 0.000E+00	 1.000E+00	 0.000E+00	|	 0.000E+00	|	 0.000E+00
-6.448E-08	|	 4.818E-03	|	 0.000E+00	 0.000E+00	 0.000E+00	 1.000E+00	|	 0.000E+00	|	 0.000E+00
 3.832E-06	|	 1.267E+00	|	 3.257E-11	 1.726E+02	-2.702E+00	 1.237E+00	|	 5.003E-08	|	-1.746E-08
 3.790E-06	|	-6.448E-08	|	 6.283E-06	-1.950E+02	 2.634E+00	-1.465E+00	|	-4.461E-01	|	 2.517E-02

op Output 	|	This colmn	|	C - Output	          	          	          	|	D - Trnsmt	|	Dd - DTsmt
Measurmnts	|	is blank  	|	Matrix    	          	          	          	|	Matrix    	|	Matrix    
 1.210E+01	|	          	|	 0.000E+00	 0.000E+00	 9.549E+00	 9.549E+00	|	 0.000E+00	|	 0.000E+00
 5.650E+00	|	          	|	 1.000E+00	 0.000E+00	 0.000E+00	 0.000E+00	|	 0.000E+00	|	 0.000E+00
 1.267E+00	|	          	|	 0.000E+00	 0.000E+00	 1.000E+00	 0.000E+00	|	 0.000E+00	|	 0.000E+00
 4.818E-03	|	          	|	 0.000E+00	 1.000E+00	 0.000E+00	 0.000E+00	|	 0.000E+00	|	 0.000E+00
-6.448E-08	|	          	|	 0.000E+00	 0.000E+00	 0.000E+00	 1.000E+00	|	 0.000E+00	|	 0.000E+00
 1.174E+03	|	          	|	 0.000E+00	 0.000E+00	 9.263E+02	 0.000E+00	|	 0.000E+00	|	 0.000E+00


--------- Azimuth =  57.00 deg (with respect to AzimB1Up =   0.00 deg) ---------
op State  	|	op        	|	A - State 	          	          	          	|	B - Input 	|	Bd - Dstrb
Derivativs	|	States    	|	Matrix    	          	          	          	|	Matrix    	|	Matrix    
 1.267E+00	|	 5.702E+00	|	 0.000E+00	 0.000E+00	 1.000E+00	 0.000E+00	|	 0.000E+00	|	 0.000E+00
 8.758E-08	|	 4.818E-03	|	 0.000E+00	 0.000E+00	 0.000E+00	 1.000E+00	|	 0.000E+00	|	 0.000E+00
 4.163E-06	|	 1.267E+00	|	-2.606E-11	 1.726E+02	-2.702E+00	 1.237E+00	|	 2.001E-07	|	-9.313E-09
 3.410E-06	|	 8.758E-08	|	 1.755E-06	-1.950E+02	 2.634E+00	-1.465E+00	|	-4.460E-01	|	 2.517E-02

op Output 	|	This colmn	|	C - Output	          	          	          	|	D - Trnsmt	|	Dd - DTsmt
Measurmnts	|	is blank  	|	Matrix    	          	          	          	|	Matrix    	|	Matrix    