
This linearized model file was generated by FAST (v7.02.00d-bjj, 20-Feb-2013) on 18-Oct-2017 at 11:53:00.
The aerodynamic calculations were made by AeroDyn (v13.00.02a-bjj, 20-Feb-2013).

 NREL 5.0 MW Baseline Wind Turbine for Use in Offshore Analysis.


Some Useful Information:

   Type of steady state solution found                Trimmed collective blade pitch (TrimCase = 3)
   Azimuth-average rotor speed, RotSpeed      (rad/s)    1.26711E+00
   Period of steady state solution              (sec)    4.95868E+00
   Iterations needed to find steady state solution     107
   Displacement 2-norm of steady state solution (rad)    2.21391E-05
   Velocity 2-norm of steady state solution   (rad/s)    7.75646E-06
   Number of equally-speced azimuth steps, NAzimStep   120
   Order of linearized model, MdlOrder                   1
   Number of active (enabled) DOFs                       5 (10 states)
   Number of control inputs, NInputs                     1
   Number of input wind disturbances, NDisturbs          1
   Number of output measurements                         6


Order of States in Linearized State Matrices:

   Row/column  1 = Variable speed generator DOF (internal DOF index = DOF_GeAz)
   Row/column  2 = Drivetrain rotational-flexibility DOF (internal DOF index = DOF_DrTr)
   Row/column  3 = 1st flapwise bending-mode DOF of blade 1 (internal DOF index = DOF_BF(1,1))
   Row/column  4 = 1st flapwise bending-mode DOF of blade 2 (internal DOF index = DOF_BF(2,1))
   Row/column  5 = 1st flapwise bending-mode DOF of blade 3 (internal DOF index = DOF_BF(3,1))
   Row/column  6 to 10 = First derivatives of row/column  1 to  5.


Order of Control Inputs in Linearized State Matrices:

   Column 1 = rotor collective blade pitch      (rad)    7.16347E-02 op


Order of Input Wind Disturbances in Linearized State Matrices:

   Column 1 = horizontal hub-height wind speed  (m/s) : See selected wind file for op


Order of Output Measurements in Linearized State Matrices:

   Row   1 = RotSpeed   (rpm)     
   Row   2 = Q_GeAz     (rad)     
   Row   3 = QD_GeAz    (rad/s)   
   Row   4 = Q_DrTr     (rad)     
   Row   5 = QD_DrTr    (rad/s)   
   Row   6 = GenSpeed   (rpm)     


Linearized State Matrices:

--------- Azimuth =   0.00 deg (with respect to AzimB1Up =   0.00 deg) ---------
op State  	|	op        	|	A - State 	          	          	          	          	          	          	          	          	          	|	B - Input 	|	Bd - Dstrb
Derivativs	|	States    	|	Matrix    	          	          	          	          	          	          	          	          	          	|	Matrix    	|	Matrix    
 1.267E+00	|	 4.708E+00	|	 0.000E+00	 0.000E+00	 0.000E+00	 0.000E+00	 0.000E+00	 1.000E+00	 0.000E+00	 0.000E+00	 0.000E+00	 0.000E+00	|	 0.000E+00	|	 0.000E+00
 1.257E-07	|	 4.818E-03	|	 0.000E+00	 0.000E+00	 0.000E+00	 0.000E+00	 0.000E+00	 0.000E+00	 1.000E+00	 0.000E+00	 0.000E+00	 0.000E+00	|	 0.000E+00	|	 0.000E+00
 3.456E-01	|	 4.197E+00	|	 0.000E+00	 0.000E+00	 0.000E+00	 0.000E+00	 0.000E+00	 0.000E+00	 0.000E+00	 1.000E+00	 0.000E+00	 0.000E+00	|	 0.000E+00	|	 0.000E+00
 3.056E-03	|	 4.665E+00	|	 0.000E+00	 0.000E+00	 0.000E+00	 0.000E+00	 0.000E+00	 0.000E+00	 0.000E+00	 0.000E+00	 1.000E+00	 0.000E+00	|	 0.000E+00	|	 0.000E+00
-3.487E-01	|	 4.198E+00	|	 0.000E+00	 0.000E+00	 0.000E+00	 0.000E+00	 0.000E+00	 0.000E+00	 0.000E+00	 0.000E+00	 0.000E+00	 1.000E+00	|	 0.000E+00	|	 0.000E+00
-7.736E-06	|	 1.267E+00	|	 2.606E-10	 1.726E+02	-7.474E-10	-4.181E-09	-3.279E-09	-2.702E+00	 1.237E+00	 2.292E-10	-2.287E-09	 3.089E-10	|	-2.031E-07	|	 6.276E-10
 1.572E-06	|	 1.257E-07	|	 4.925E-05	-1.960E+02	 1.212E-02	 1.217E-02	 1.218E-02	 2.588E+00	-1.518E+00	 2.375E-04	 2.178E-04	 4.233E-05	|	 4.273E-01	|	 8.418E-03
 2.465E-01	|	 3.456E-01	|	 5.910E+00	 5.491E+02	-2.072E+01	-2.837E-01	-2.838E-01	 2.535E+01	 2.924E+01	-4.041E+00	 1.792E-03	 5.972E-03	|	-5.025E+02	|	 9.586E+00
-4.924E-01	|	 3.056E-03	|	-1.593E+00	 5.409E+02	-2.825E-01	-2.096E+01	-2.833E-01	 2.640E+01	 3.029E+01	-9.453E-03	-4.216E+00	-4.864E-03	|	-5.115E+02	|	 1.002E+01
 2.473E-01	|	-3.487E-01	|	-4.441E+00	 5.388E+02	-2.831E-01	-2.837E-01	-2.098E+01	 3.058E+01	 3.447E+01	-9.423E-03	-8.827E-03	-4.097E+00	|	-5.236E+02	|	 9.746E+00

op Output 	|	This colmn	|	C - Output	          	          	          	          	          	          	          	          	          	|	D - Trnsmt	|	Dd - DTsmt
Measurmnts	|	is blank  	|	Matrix    	          	          	          	          	          	          	          	          	          	|	Matrix    	|	Matrix    
 1.210E+01	|	          	|	 0.000E+00	 0.000E+00	 0.000E+00	 0.000E+00	 0.000E+00	 9.549E+00	 9.549E+00	 0.000E+00	 0.000E+00	 0.000E+00	|	 0.000E+00	|	 0.000E+00
 4.708E+00	|	          	|	 1.000E+00	 0.000E+00	 0.000E+00	 0.000E+00	 0.000E+00	 0.000E+00	 0.000E+00	 0.000E+00	 0.000E+00	 0.000E+00	|	 0.000E+00	|	 0.000E+00
 1.267E+00	|	          	|	 0.000E+00	 0.000E+00	 0.000E+00	 0.000E+00	 0.000E+00	 1.000E+00	 0.000E+00	 0.000E+00	 0.000E+00	 0.000E+00	|	 0.000E+00	|	 0.000E+00
 4.818E-03	|	          	|	 0.000E+00	 1.000E+00	 0.000E+00	 0.000E+00	 0.000E+00	 0.000E+00	 0.000E+00	 0.000E+00	 0.000E+00	 0.000E+00	|	 0.000E+00	|	 0.000E+00
 1.257E-07	|	          	|	 0.000E+00	 0.000E+00	 0.000E+00	 0.000E+00	 0.000E+00	 0.000E+00	 1.000E+00	 0.000E+00	 0.000E+00	 0.000E+00	|	 0.000E+00	|	 0.000E+00
 1.174E+03	|	          	|	 0.000E+00	 0.000E+00	 0.000E+00	 0.000E+00	 0.000E+00	 9.263E+02	 0.000E+00	 0.000E+00	 0.000E+00	 0.000E+00	|	 0.000E+00	|	 0.000E+00


--------- Azimuth =   3.00 deg (with respect to AzimB1Up =   0.00 deg) ---------
op State  	|	op        	|	A - State 	          	          	          	          	          	          	          	          	          	|	B - Input 	|	Bd - Dstrb
Derivativs	|	States    	|	Matrix    	          	          	          	          	          	          	          	          	          	|	Matrix    	|	Matrix    
 1.267E+00	|	 4.760E+00	|	 0.000E+00	 0.000E+00	 0.000E+00	 0.000E+00	 0.000E+00	 1.000E+00	 0.000E+00	 0.000E+00	 0.000E+00	 0.000E+00	|	 0.000E+00	|	 0.000E+00
 1.701E-07	|	 4.818E-03	|	 0.000E+00	 0.000E+00	 0.000E+00	 0.000E+00	 0.000E+00	 0.000E+00	 1.000E+00	 0.000E+00	 0.000E+00	 0.000E+00	|	 0.000E+00	|	 0.000E+00
 3.553E-01	|	 4.211E+00	|	 0.000E+00	 0.000E+00	 0.000E+00	 0.000E+00	 0.000E+00	 0.000E+00	 0.000E+00	 1.000E+00	 0.000E+00	 0.000E+00	|	 0.000E+00	|	 0.000E+00
-1.729E-02	|	 4.665E+00	|	 0.000E+00	 0.000E+00	 0.000E+00	 0.000E+00	 0.000E+00	 0.000E+00	 0.000E+00	 0.000E+00	 1.000E+00	 0.000E+00	|	 0.000E+00	|	 0.000E+00
-3.380E-01	|	 4.184E+00	|	 0.000E+00	 0.000E+00	 0.000E+00	 0.000E+00	 0.000E+00	 0.000E+00	 0.000E+00	 0.000E+00	 0.000E+00	 1.000E+00	|	 0.000E+00	|	 0.000E+00
-6.603E-06	|	 1.267E+00	|	-1.179E-09	 1.726E+02	 5.583E-09	-1.410E-09	-7.250E-10	-2.702E+00	 1.237E+00	 7.823E-10	 2.566E-10	-7.973E-10	|	 1.293E-07	|	-1.128E-09
 6.381E-07	|	 1.701E-07	|	 5.182E-05	-1.960E+02	 1.212E-02	 1.217E-02	 1.218E-02	 2.588E+00	-1.518E+00	 2.426E-04	 2.112E-04	 4.302E-05	|	 4.273E-01	|	 8.416E-03
 2.227E-01	|	 3.553E-01	|	 5.980E+00	 5.492E+02	-2.072E+01	-2.837E-01	-2.837E-01	 2.522E+01	 2.912E+01	-4.045E+00	 1.944E-03	 6.001E-03	|	-5.021E+02	|	 9.592E+00
-4.922E-01	|	-1.729E-02	|	-1.902E+00	 5.406E+02	-2.826E-01	-2.097E+01	-2.833E-01	 2.656E+01	 3.045E+01	-9.887E-03	-4.218E+00	-5.242E-03	|	-5.122E+02	|	 1.002E+01
 2.709E-01	|	-3.380E-01	|	-4.202E+00	 5.390E+02	-2.831E-01	-2.837E-01	-2.097E+01	 3.054E+01	 3.444E+01	-9.089E-03	-8.313E-03	-4.092E+00	|	-5.233E+02	|	 9.733E+00

op Output 	|	This colmn	|	C - Output	          	          	          	          	          	          	          	          	          	|	D - Trnsmt	|	Dd - DTsmt
Measurmnts	|	is blank  	|	Matrix    	          	          	          	          	          	          	          	          	          	|	Matrix    	|	Matrix    
 1.210E+01	|	          	|	 0.000E+00	 0.000E+00	 0.000E+00	 0.000E+00	 0.000E+00	 9.549E+00	 9.549E+00	 0.000E+00	 0.000E+00	 0.000E+00	|	 0.000E+00	|	 0.000E+00
 4.760E+00	|	          	|	 1.000E+00	 0.000E+00	 0.000E+00	 0.000E+00	 0.000E+00	 0.000E+00	 0.000E+00	 0.000E+00	 0.000E+00	 0.000E+00	|	 0.000E+00	|	 0.000E+00
 1.267E+00	|	          	|	 0.000E+00	 0.000E+00	 0.000E+00	 0.000E+00	 0.000E+00	 1.000E+00	 0.000E+00	 0.000E+00	 0.000E+00	 0.000E+00	|	 0.000E+00	|	 0.000E+00
 4.818E-03	|	          	|	 0.000E+00	 1.000E+00	 0.000E+00	 0.000E+00	 0.000E+00	 0.000E+00	 0.000E+00	 0.000E+00	 0.000E+00	 0.000E+00	|	 0.000E+00	|	 0.000E+00
 1.701E-07	|	          	|	 0.000E+00	 0.000E+00	 0.000E+00	 0.000E+00	 0.000E+00	 0.000E+00	 1.000E+00	 0.000E+00	 0.000E+00	 0.000E+00	|	 0.000E+00	|	 0.000E+00
 1.174E+03	|	          	|	 0.000E+00	 0.000E+00	 0.000E+00	 0.000E+00	 0.000E+00	 9.263E+02	 0.000E+00	 0.000E+00	 0.000E+00	 0.000E+00	|	 0.000E+00	|	 0.000E+00


--------- Azimuth =   6.00 deg (with respect to AzimB1Up =   0.00 deg) ---------
op State  	|	op        	|	A - State 	          	          	          	          	          	          	          	          	          	|	B - Input 	|	Bd - Dstrb
Derivativs	|	States    	|	Matrix    	          	          	          	          	          	          	          	          	          	|	Matrix    	|	Matrix    
 1.267E+00	|	 4.812E+00	|	 0.000E+00	 0.000E+00	 0.000E+00	 0.000E+00	 0.000E+00	 1.000E+00	 0.000E+00	 0.000E+00	 0.000E+00	 0.000E+00	|	 0.000E+00	|	 0.000E+00
 1.750E-07	|	 4.818E-03	|	 0.000E+00	 0.000E+00	 0.000E+00	 0.000E+00	 0.000E+00	 0.000E+00	 1.000E+00	 0.000E+00	 0.000E+00	 0.000E+00	|	 0.000E+00	|	 0.000E+00
 3.640E-01	|	 4.226E+00	|	 0.000E+00	 0.000E+00	 0.000E+00	 0.000E+00	 0.000E+00	 0.000E+00	 0.000E+00	 1.000E+00	 0.000E+00	 0.000E+00	|	 0.000E+00	|	 0.000E+00
-3.761E-02	|	 4.664E+00	|	 0.000E+00	 0.000E+00	 0.000E+00	 0.000E+00	 0.000E+00	 0.000E+00	 0.000E+00	 0.000E+00	 1.000E+00	 0.000E+00	|	 0.000E+00	|	 0.000E+00
-3.263E-01	|	 4.171E+00	|	 0.000E+00	 0.000E+00	 0.000E+00	 0.000E+00	 0.000E+00	 0.000E+00	 0.000E+00	 0.000E+00	 0.000E+00	 1.000E+00	|	 0.000E+00	|	 0.000E+00
-5.469E-06	|	 1.267E+00	|	 4.149E-09	 1.726E+02	 1.652E-09	 4.420E-09	-1.754E-09	-2.702E+00	 1.237E+00	-9.393E-10	 1.495E-11	-1.350E-09	|	-9.009E-08	|	 5.052E-09
-4.336E-07	|	 1.750E-07	|	 5.036E-05	-1.960E+02	 1.212E-02	 1.217E-02	 1.217E-02	 2.588E+00	-1.518E+00	 2.476E-04	 2.047E-04	 4.435E-05	|	 4.272E-01	|	 8.418E-03
 1.983E-01	|	 3.640E-01	|	 6.033E+00	 5.492E+02	-2.072E+01	-2.837E-01	-2.837E-01	 2.510E+01	 2.900E+01	-4.049E+00	 2.005E-03	 5.879E-03	|	-5.018E+02	|	 9.600E+00
-4.907E-01	|	-3.761E-02	|	-2.204E+00	 5.403E+02	-2.827E-01	-2.098E+01	-2.834E-01	 2.672E+01	 3.061E+01	-1.036E-02	-4.220E+00	-5.724E-03	|	-5.129E+02	|	 1.003E+01
 2.938E-01	|	-3.263E-01	|	-3.952E+00	 5.393E+02	-2.831E-01	-2.837E-01	-2.097E+01	 3.050E+01	 3.439E+01	-8.844E-03	-7.801E-03	-4.087E+00	|	-5.230E+02	|	 9.720E+00

op Output 	|	This colmn	|	C - Output	          	          	          	          	          	          	          	          	          	|	D - Trnsmt	|	Dd - DTsmt
Measurmnts	|	is blank  	|	Matrix    	          	          	          	          	          	          	          	          	          	|	Matrix    	|	Matrix    
 1.210E+01	|	          	|	 0.000E+00	 0.000E+00	 0.000E+00	 0.000E+00	 0.000E+00	 9.549E+00	 9.549E+00	 0.000E+00	 0.000E+00	 0.000E+00	|	 0.000E+00	|	 0.000E+00
 4.812E+00	|	          	|	 1.000E+00	 0.000E+00	 0.000E+00	 0.000E+00	 0.000E+00	 0.000E+00	 0.000E+00	 0.000E+00	 0.000E+00	 0.000E+00	|	 0.000E+00	|	 0.000E+00
 1.267E+00	|	          	|	 0.000E+00	 0.000E+00	 0.000E+00	 0.000E+00	 0.000E+00	 1.000E+00	 0.000E+00	 0.000E+00	 0.000E+00	 0.000E+00	|	 0.000E+00	|	 0.000E+00
 4.818E-03	|	          	|	 0.000E+00	 1.000E+00	 0.000E+00	 0.000E+00	 0.000E+00	 0.000E+00	 0.000E+00	 0.000E+00	 0.000E+00	 0.000E+00	|	 0.000E+00	|	 0.000E+00
 1.750E-07	|	          	|	 0.000E+00	 0.000E+00	 0.000E+00	 0.000E+00	 0.000E+00	 0.000E+00	 1.000E+00	 0.000E+00	 0.000E+00	 0.000E+00	|	 0.000E+00	|	 0.000E+00
 1.174E+03	|	          	|	 0.000E+00	 0.000E+00	 0.000E+00	 0.000E+00	 0.000E+00	 9.263E+02	 0.000E+00	 0.000E+00	 0.000E+00	 0.000E+00	|	 0.000E+00	|	 0.000E+00


--------- Azimuth =   9.00 deg (with respect to AzimB1Up =   0.00 deg) ---------
op State  	|	op        	|	A - State 	          	          	          	          	          	          	          	          	          	|	B - Input 	|	Bd - Dstrb
Derivativs	|	States    	|	Matrix    	          	          	          	          	          	          	          	          	          	|	Matrix    	|	Matrix    
 1.267E+00	|	 4.865E+00	|	 0.000E+00	 0.000E+00	 0.000E+00	 0.000E+00	 0.000E+00	 1.000E+00	 0.000E+00	 0.000E+00	 0.000E+00	 0.000E+00	|	 0.000E+00	|	 0.000E+00
 1.420E-07	|	 4.818E-03	|	 0.000E+00	 0.000E+00	 0.000E+00	 0.000E+00	 0.000E+00	 0.000E+00	 1.000E+00	 0.000E+00	 0.000E+00	 0.000E+00	|	 0.000E+00	|	 0.000E+00
 3.716E-01	|	 4.241E+00	|	 0.000E+00	 0.000E+00	 0.000E+00	 0.000E+00	 0.000E+00	 0.000E+00	 0.000E+00	 1.000E+00	 0.000E+00	 0.000E+00	|	 0.000E+00	|	 0.000E+00
-5.783E-02	|	 4.662E+00	|	 0.000E+00	 0.000E+00	 0.000E+00	 0.000E+00	 0.000E+00	 0.000E+00	 0.000E+00	 0.000E+00	 1.000E+00	 0.000E+00	|	 0.000E+00	|	 0.000E+00
-3.137E-01	|	 4.157E+00	|	 0.000E+00	 0.000E+00	 0.000E+00	 0.000E+00	 0.000E+00	 0.000E+00	 0.000E+00	 0.000E+00	 0.000E+00	 1.000E+00	|	 0.000E+00	|	 0.000E+00
-4.408E-06	|	 1.267E+00	|	-9.119E-11	 1.726E+02	-2.118E-09	-1.627E-09	 2.070E-09	-2.702E+00	 1.237E+00	 2.392E-10	-7.973E-11	 9.542E-10	|	-2.723E-07	|	 2.362E-09
-1.135E-06	|	 1.420E-07	|	 5.640E-05	-1.960E+02	 1.212E-02	 1.217E-02	 1.217E-02	 2.588E+00	-1.518E+00	 2.528E-04	 1.983E-04	 4.572E-05	|	 4.270E-01	|	 8.422E-03
 1.734E-01	|	 3.716E-01	|	 6.070E+00	 5.492E+02	-2.072E+01	-2.839E-01	-2.836E-01	 2.499E+01	 2.888E+01	-4.053E+00	 2.156E-03	 5.982E-03	|	-5.015E+02	|	 9.608E+00
-4.880E-01	|	-5.783E-02	|	-2.502E+00	 5.400E+02	-2.827E-01	-2.098E+01	-2.834E-01	 2.689E+01	 3.077E+01	-1.080E-02	-4.221E+00	-6.071E-03	|	-5.136E+02	|	 1.003E+01
 3.158E-01	|	-3.137E-01	|	-3.691E+00	 5.396E+02	-2.830E-01	-2.838E-01	-2.096E+01	 3.044E+01	 3.433E+01	-8.650E-03	-7.288E-03	-4.081E+00	|	-5.227E+02	|	 9.707E+00

op Output 	|	This colmn	|	C - Output	          	          	          	          	          	          	          	          	          	|	D - Trnsmt	|	Dd - DTsmt
Measurmnts	|	is blank  	|	Matrix    	          	          	          	          	          	          	          	          	          	|	Matrix    	|	Matrix    
 1.210E+01	|	          	|	 0.000E+00	 0.000E+00	 0.000E+00	 0.000E+00	 0.000E+00	 9.549E+00	 9.549E+00	 0.000E+00	 0.000E+00	 0.000E+00	|	 0.000E+00	|	 0.000E+00
 4.865E+00	|	          	|	 1.000E+00	 0.000E+00	 0.000E+00	 0.000E+00	 0.000E+00	 0.000E+00	 0.000E+00	 0.000E+00	 0.000E+00	 0.000E+00	|	 0.000E+00	|	 0.000E+00
 1.267E+00	|	          	|	 0.000E+00	 0.000E+00	 0.000E+00	 0.000E+00	 0.000E+00	 1.000E+00	 0.000E+00	 0.000E+00	 0.000E+00	 0.000E+00	|	 0.000E+00	|	 0.000E+00
 4.818E-03	|	          	|	 0.000E+00	 1.000E+00	 0.000E+00	 0.000E+00	 0.000E+00	 0.000E+00	 0.000E+00	 0.000E+00	 0.000E+00	 0.000E+00	|	 0.000E+00	|	 0.000E+00
 1.420E-07	|	          	|	 0.000E+00	 0.000E+00	 0.000E+00	 0.000E+00	 0.000E+00	 0.000E+00	 1.000E+00	 0.000E+00	 0.000E+00	 0.000E+00	|	 0.000E+00	|	 0.000E+00
 1.174E+03	|	          	|	 0.000E+00	 0.000E+00	 0.000E+00	 0.000E+00	 0.000E+00	 9.263E+02	 0.000E+00	 0.000E+00	 0.000E+00	 0.000E+00	|	 0.000E+00	|	 0.000E+00


--------- Azimuth =  12.00 deg (with respect to AzimB1Up =   0.00 deg) ---------
op State  	|	op        	|	A - State 	          	          	          	          	          	          	          	          	          	|	B - Input 	|	Bd - Dstrb
Derivativs	|	States    	|	Matrix    	          	          	          	          	          	          	          	          	          	|	Matrix    	|	Matrix    
 1.267E+00	|	 4.917E+00	|	 0.000E+00	 0.000E+00	 0.000E+00	 0.000E+00	 0.000E+00	 1.000E+00	 0.000E+00	 0.000E+00	 0.000E+00	 0.000E+00	|	 0.000E+00	|	 0.000E+00
 8.837E-08	|	 4.818E-03	|	 0.000E+00	 0.000E+00	 0.000E+00	 0.000E+00	 0.000E+00	 0.000E+00	 1.000E+00	 0.000E+00	 0.000E+00	 0.000E+00	|	 0.000E+00	|	 0.000E+00
 3.783E-01	|	 4.257E+00	|	 0.000E+00	 0.000E+00	 0.000E+00	 0.000E+00	 0.000E+00	 0.000E+00	 0.000E+00	 1.000E+00	 0.000E+00	 0.000E+00	|	 0.000E+00	|	 0.000E+00
-7.792E-02	|	 4.659E+00	|	 0.000E+00	 0.000E+00	 0.000E+00	 0.000E+00	 0.000E+00	 0.000E+00	 0.000E+00	 0.000E+00	 1.000E+00	 0.000E+00	|	 0.000E+00	|	 0.000E+00
-3.002E-01	|	 4.145E+00	|	 0.000E+00	 0.000E+00	 0.000E+00	 0.000E+00	 0.000E+00	 0.000E+00	 0.000E+00	 0.000E+00	 0.000E+00	 1.000E+00	|	 0.000E+00	|	 0.000E+00
-3.636E-06	|	 1.267E+00	|	 4.136E-10	 1.726E+02	-4.963E-09	-3.426E-10	 2.582E-09	-2.702E+00	 1.237E+00	-8.670E-10	 1.036E-09	-1.350E-09	|	-9.969E-08	|	-1.850E-09
-1.305E-06	|	 8.837E-08	|	 5.676E-05	-1.960E+02	 1.212E-02	 1.217E-02	 1.217E-02	 2.588E+00	-1.518E+00	 2.578E-04	 1.916E-04	 4.699E-05	|	 4.269E-01	|	 8.425E-03
 1.481E-01	|	 3.783E-01	|	 6.091E+00	 5.492E+02	-2.073E+01	-2.839E-01	-2.834E-01	 2.488E+01	 2.877E+01	-4.057E+00	 2.176E-03	 5.772E-03	|	-5.012E+02	|	 9.617E+00
-4.840E-01	|	-7.792E-02	|	-2.794E+00	 5.397E+02	-2.828E-01	-2.099E+01	-2.833E-01	 2.705E+01	 3.094E+01	-1.123E-02	-4.222E+00	-6.326E-03	|	-5.142E+02	|	 1.004E+01
 3.370E-01	|	-3.002E-01	|	-3.419E+00	 5.399E+02	-2.829E-01	-2.838E-01	-2.095E+01	 3.038E+01	 3.427E+01	-8.360E-03	-6.771E-03	-4.076E+00	|	-5.223E+02	|	 9.695E+00

op Output 	|	This colmn	|	C - Output	          	          	          	          	          	          	          	          	          	|	D - Trnsmt	|	Dd - DTsmt
Measurmnts	|	is blank  	|	Matrix    	          	          	          	          	          	          	          	          	          	|	Matrix    	|	Matrix    
 1.210E+01	|	          	|	 0.000E+00	 0.000E+00	 0.000E+00	 0.000E+00	 0.000E+00	 9.549E+00	 9.549E+00	 0.000E+00	 0.000E+00	 0.000E+00	|	 0.000E+00	|	 0.000E+00
 4.917E+00	|	          	|	 1.000E+00	 0.000E+00	 0.000E+00	 0.000E+00	 0.000E+00	 0.000E+00	 0.000E+00	 0.000E+00	 0.000E+00	 0.000E+00	|	 0.000E+00	|	 0.000E+00
 1.267E+00	|	          	|	 0.000E+00	 0.000E+00	 0.000E+00	 0.000E+00	 0.000E+00	 1.000E+00	 0.000E+00	 0.000E+00	 0.000E+00	 0.000E+00	|	 0.000E+00	|	 0.000E+00
 4.818E-03	|	          	|	 0.000E+00	 1.000E+00	 0.000E+00	 0.000E+00	 0.000E+00	 0.000E+00	 0.000E+00	 0.000E+00	 0.000E+00	 0.000E+00	|	 0.000E+00	|	 0.000E+00
 8.837E-08	|	          	|	 0.000E+00	 0.000E+00	 0.000E+00	 0.000E+00	 0.000E+00	 0.000E+00	 1.000E+00	 0.000E+00	 0.000E+00	 0.000E+00	|	 0.000E+00	|	 0.000E+00
 1.174E+03	|	          	|	 0.000E+00	 0.000E+00	 0.000E+00	 0.000E+00	 0.000E+00	 9.263E+02	 0.000E+00	 0.000E+00	 0.000E+00	 0.000E+00	|	 0.000E+00	|	 0.000E+00


--------- Azimuth =  15.00 deg (with respect to AzimB1Up =   0.00 deg) ---------
op State  	|	op        	|	A - State 	          	          	          	          	          	          	          	          	          	|	B - Input 	|	Bd - Dstrb
Derivativs	|	States    	|	Matrix    	          	          	          	          	          	          	          	          	          	|	Matrix    	|	Matrix    
 1.267E+00	|	 4.969E+00	|	 0.000E+00	 0.000E+00	 0.000E+00	 0.000E+00	 0.000E+00	 1.000E+00	 0.000E+00	 0.000E+00	 0.000E+00	 0.000E+00	|	 0.000E+00	|	 0.000E+00
 3.832E-08	|	 4.818E-03	|	 0.000E+00	 0.000E+00	 0.000E+00	 0.000E+00	 0.000E+00	 0.000E+00	 1.000E+00	 0.000E+00	 0.000E+00	 0.000E+00	|	 0.000E+00	|	 0.000E+00
 3.839E-01	|	 4.272E+00	|	 0.000E+00	 0.000E+00	 0.000E+00	 0.000E+00	 0.000E+00	 0.000E+00	 0.000E+00	 1.000E+00	 0.000E+00	 0.000E+00	|	 0.000E+00	|	 0.000E+00
-9.781E-02	|	 4.655E+00	|	 0.000E+00	 0.000E+00	 0.000E+00	 0.000E+00	 0.000E+00	 0.000E+00	 0.000E+00	 0.000E+00	 1.000E+00	 0.000E+00	|	 0.000E+00	|	 0.000E+00
-2.859E-01	|	 4.132E+00	|	 0.000E+00	 0.000E+00	 0.000E+00	 0.000E+00	 0.000E+00	 0.000E+00	 0.000E+00	 0.000E+00	 0.000E+00	 1.000E+00	|	 0.000E+00	|	 0.000E+00
-3.136E-06	|	 1.267E+00	|	-4.420E-09	 1.726E+02	-1.520E-10	-5.668E-10	 9.216E-09	-2.702E+00	 1.237E+00	-1.106E-09	 3.924E-10	 7.200E-10	|	-1.801E-07	|	 6.320E-09
-1.081E-06	|	 3.832E-08	|	 6.672E-05	-1.960E+02	 1.212E-02	 1.218E-02	 1.217E-02	 2.588E+00	-1.518E+00	 2.623E-04	 1.851E-04	 4.867E-05	|	 4.268E-01	|	 8.424E-03
 1.225E-01	|	 3.839E-01	|	 6.098E+00	 5.492E+02	-2.073E+01	-2.840E-01	-2.834E-01	 2.478E+01	 2.867E+01	-4.062E+00	 2.282E-03	 5.822E-03	|	-5.010E+02	|	 9.627E+00
-4.787E-01	|	-9.781E-02	|	-3.079E+00	 5.394E+02	-2.829E-01	-2.100E+01	-2.833E-01	 2.722E+01	 3.111E+01	-1.165E-02	-4.222E+00	-6.681E-03	|	-5.149E+02	|	 1.004E+01
 3.572E-01	|	-2.859E-01	|	-3.139E+00	 5.402E+02	-2.830E-01	-2.839E-01	-2.094E+01	 3.031E+01	 3.420E+01	-8.103E-03	-6.213E-03	-4.071E+00	|	-5.219E+02	|	 9.683E+00

op Output 	|	This colmn	|	C - Output	          	          	          	          	          	          	          	          	          	|	D - Trnsmt	|	Dd - DTsmt
Measurmnts	|	is blank  	|	Matrix    	          	          	          	          	          	          	          	          	          	|	Matrix    	|	Matrix    
 1.210E+01	|	          	|	 0.000E+00	 0.000E+00	 0.000E+00	 0.000E+00	 0.000E+00	 9.549E+00	 9.549E+00	 0.000E+00	 0.000E+00	 0.000E+00	|	 0.000E+00	|	 0.000E+00
 4.969E+00	|	          	|	 1.000E+00	 0.000E+00	 0.000E+00	 0.000E+00	 0.000E+00	 0.000E+00	 0.000E+00	 0.000E+00	 0.000E+00	 0.000E+00	|	 0.000E+00	|	 0.000E+00
 1.267E+00	|	          	|	 0.000E+00	 0.000E+00	 0.000E+00	 0.000E+00	 0.000E+00	 1.000E+00	 0.000E+00	 0.000E+00	 0.000E+00	 0.000E+00	|	 0.000E+00	|	 0.000E+00
 4.818E-03	|	          	|	 0.000E+00	 1.000E+00	 0.000E+00	 0.000E+00	 0.000E+00	 0.000E+00	 0.000E+00	 0.000E+00	 0.000E+00	 0.000E+00	|	 0.000E+00	|	 0.000E+00
 3.832E-08	|	          	|	 0.000E+00	 0.000E+00	 0.000E+00	 0.000E+00	 0.000E+00	 0.000E+00	 1.000E+00	 0.000E+00	 0.000E+00	 0.000E+00	|	 0.000E+00	|	 0.000E+00
 1.174E+03	|	          	|	 0.000E+00	 0.000E+00	 0.000E+00	 0.000E+00	 0.000E+00	 9.263E+02	 0.000E+00	 0.000E+00	 0.000E+00	 0.000E+00	|	 0.000E+00	|	 0.000E+00


--------- Azimuth =  18.00 deg (with respect to AzimB1Up =   0.00 deg) ---------
op State  	|	op        	|	A - State 	          	          	          	          	          	          	          	          	          	|	B - Input 	|	Bd - Dstrb
Derivativs	|	States    	|	Matrix    	          	          	          	          	          	          	          	          	          	|	Matrix    	|	Matrix    
 1.267E+00	|	 5.022E+00	|	 0.000E+00	 0.000E+00	 0.000E+00	 0.000E+00	 0.000E+00	 1.000E+00	 0.000E+00	 0.000E+00	 0.000E+00	 0.000E+00	|	 0.000E+00	|	 0.000E+00
 2.096E-08	|	 4.818E-03	|	 0.000E+00	 0.000E+00	 0.000E+00	 0.000E+00	 0.000E+00	 0.000E+00	 1.000E+00	 0.000E+00	 0.000E+00	 0.000E+00	|	 0.000E+00	|	 0.000E+00
 3.884E-01	|	 4.288E+00	|	 0.000E+00	 0.000E+00	 0.000E+00	 0.000E+00	 0.000E+00	 0.000E+00	 0.000E+00	 1.000E+00	 0.000E+00	 0.000E+00	|	 0.000E+00	|	 0.000E+00
-1.175E-01	|	 4.651E+00	|	 0.000E+00	 0.000E+00	 0.000E+00	 0.000E+00	 0.000E+00	 0.000E+00	 0.000E+00	 0.000E+00	 1.000E+00	 0.000E+00	|	 0.000E+00	|	 0.000E+00
-2.707E-01	|	 4.121E+00	|	 0.000E+00	 0.000E+00	 0.000E+00	 0.000E+00	 0.000E+00	 0.000E+00	 0.000E+00	 0.000E+00	 0.000E+00	 1.000E+00	|	 0.000E+00	|	 0.000E+00
-3.158E-06	|	 1.267E+00	|	-3.973E-09	 1.726E+02	-2.068E-10	-8.135E-10	-3.036E-09	-2.702E+00	 1.237E+00	 3.164E-10	-1.548E-09	 3.974E-10	|	 2.002E-07	|	 2.922E-09
 4.485E-07	|	 2.096E-08	|	 7.342E-05	-1.960E+02	 1.212E-02	 1.218E-02	 1.216E-02	 2.588E+00	-1.518E+00	 2.698E-04	 1.780E-04	 5.041E-05	|	 4.269E-01	|	 8.420E-03
 9.692E-02	|	 3.884E-01	|	 6.085E+00	 5.492E+02	-2.073E+01	-2.840E-01	-2.833E-01	 2.468E+01	 2.857E+01	-4.065E+00	 2.266E-03	 5.465E-03	|	-5.008E+02	|	 9.636E+00
-4.723E-01	|	-1.175E-01	|	-3.355E+00	 5.391E+02	-2.829E-01	-2.100E+01	-2.833E-01	 2.739E+01	 3.127E+01	-1.215E-02	-4.223E+00	-7.083E-03	|	-5.155E+02	|	 1.004E+01
 3.764E-01	|	-2.707E-01	|	-2.850E+00	 5.405E+02	-2.829E-01	-2.839E-01	-2.094E+01	 3.023E+01	 3.412E+01	-7.828E-03	-5.733E-03	-4.066E+00	|	-5.215E+02	|	 9.672E+00

op Output 	|	This colmn	|	C - Output	          	          	          	          	          	          	          	          	          	|	D - Trnsmt	|	Dd - DTsmt
Measurmnts	|	is blank  	|	Matrix    	          	          	          	          	          	          	          	          	          	|	Matrix    	|	Matrix    
 1.210E+01	|	          	|	 0.000E+00	 0.000E+00	 0.000E+00	 0.000E+00	 0.000E+00	 9.549E+00	 9.549E+00	 0.000E+00	 0.000E+00	 0.000E+00	|	 0.000E+00	|	 0.000E+00
 5.022E+00	|	          	|	 1.000E+00	 0.000E+00	 0.000E+00	 0.000E+00	 0.000E+00	 0.000E+00	 0.000E+00	 0.000E+00	 0.000E+00	 0.000E+00	|	 0.000E+00	|	 0.000E+00
 1.267E+00	|	          	|	 0.000E+00	 0.000E+00	 0.000E+00	 0.000E+00	 0.000E+00	 1.000E+00	 0.000E+00	 0.000E+00	 0.000E+00	 0.000E+00	|	 0.000E+00	|	 0.000E+00
 4.818E-03	|	          	|	 0.000E+00	 1.000E+00	 0.000E+00	 0.000E+00	 0.000E+00	 0.000E+00	 0.000E+00	 0.000E+00	 0.000E+00	 0.000E+00	|	 0.000E+00	|	 0.000E+00
 2.096E-08	|	          	|	 0.000E+00	 0.000E+00	 0.000E+00	 0.000E+00	 0.000E+00	 0.000E+00	 1.000E+00	 0.000E+00	 0.000E+00	 0.000E+00	|	 0.000E+00	|	 0.000E+00
 1.174E+03	|	          	|	 0.000E+00	 0.000E+00	 0.000E+00	 0.000E+00	 0.000E+00	 9.263E+02	 0.000E+00	 0.000E+00	 0.000E+00	 0.000E+00	|	 0.000E+00	|	 0.000E+00


--------- Azimuth =  21.00 deg (with respect to AzimB1Up =   0.00 deg) ---------
op State  	|	op        	|	A - State 	          	          	          	          	          	          	          	          	          	|	B - Input 	|	Bd - Dstrb
Derivativs	|	States    	|	Matrix    	          	          	          	          	          	          	          	          	          	|	Matrix    	|	Matrix    
 1.267E+00	|	 5.074E+00	|	 0.000E+00	 0.000E+00	 0.000E+00	 0.000E+00	 0.000E+00	 1.000E+00	 0.000E+00	 0.000E+00	 0.000E+00	 0.000E+00	|	 0.000E+00	|	 0.000E+00
 6.368E-08	|	 4.818E-03	|	 0.000E+00	 0.000E+00	 0.000E+00	 0.000E+00	 0.000E+00	 0.000E+00	 1.000E+00	 0.000E+00	 0.000E+00	 0.000E+00	|	 0.000E+00	|	 0.000E+00
 3.919E-01	|	 4.305E+00	|	 0.000E+00	 0.000E+00	 0.000E+00	 0.000E+00	 0.000E+00	 0.000E+00	 0.000E+00	 1.000E+00	 0.000E+00	 0.000E+00	|	 0.000E+00	|	 0.000E+00
-1.368E-01	|	 4.645E+00	|	 0.000E+00	 0.000E+00	 0.000E+00	 0.000E+00	 0.000E+00	 0.000E+00	 0.000E+00	 0.000E+00	 1.000E+00	 0.000E+00	|	 0.000E+00	|	 0.000E+00
-2.548E-01	|	 4.110E+00	|	 0.000E+00	 0.000E+00	 0.000E+00	 0.000E+00	 0.000E+00	 0.000E+00	 0.000E+00	 0.000E+00	 0.000E+00	 1.000E+00	|	 0.000E+00	|	 0.000E+00
-2.903E-06	|	 1.267E+00	|	 2.957E-09	 1.726E+02	-4.928E-09	 4.206E-09	 4.627E-09	-2.702E+00	 1.237E+00	 3.214E-10	-1.134E-09	 1.107E-09	|	 1.513E-07	|	 5.286E-09
 1.544E-06	|	 6.368E-08	|	 7.030E-05	-1.960E+02	 1.212E-02	 1.218E-02	 1.216E-02	 2.588E+00	-1.518E+00	 2.706E-04	 1.710E-04	 5.260E-05	|	 4.269E-01	|	 8.414E-03
 7.085E-02	|	 3.919E-01	|	 6.052E+00	 5.491E+02	-2.073E+01	-2.840E-01	-2.831E-01	 2.459E+01	 2.848E+01	-4.071E+00	 2.340E-03	 5.459E-03	|	-5.006E+02	|	 9.646E+00
-4.646E-01	|	-1.368E-01	|	-3.623E+00	 5.389E+02	-2.829E-01	-2.101E+01	-2.832E-01	 2.756E+01	 3.144E+01	-1.248E-02	-4.223E+00	-7.359E-03	|	-5.162E+02	|	 1.004E+01
 3.945E-01	|	-2.548E-01	|	-2.553E+00	 5.408E+02	-2.829E-01	-2.840E-01	-2.093E+01	 3.014E+01	 3.403E+01	-7.439E-03	-5.116E-03	-4.061E+00	|	-5.210E+02	|	 9.660E+00

op Output 	|	This colmn	|	C - Output	          	          	          	          	          	          	          	          	          	|	D - Trnsmt	|	Dd - DTsmt
Measurmnts	|	is blank  	|	Matrix    	          	          	          	          	          	          	          	          	          	|	Matrix    	|	Matrix    
 1.210E+01	|	          	|	 0.000E+00	 0.000E+00	 0.000E+00	 0.000E+00	 0.000E+00	 9.549E+00	 9.549E+00	 0.000E+00	 0.000E+00	 0.000E+00	|	 0.000E+00	|	 0.000E+00
 5.074E+00	|	          	|	 1.000E+00	 0.000E+00	 0.000E+00	 0.000E+00	 0.000E+00	 0.000E+00	 0.000E+00	 0.000E+00	 0.000E+00	 0.000E+00	|	 0.000E+00	|	 0.000E+00
 1.267E+00	|	          	|	 0.000E+00	 0.000E+00	 0.000E+00	 0.000E+00	 0.000E+00	 1.000E+00	 0.000E+00	 0.000E+00	 0.000E+00	 0.000E+00	|	 0.000E+00	|	 0.000E+00
 4.818E-03	|	          	|	 0.000E+00	 1.000E+00	 0.000E+00	 0.000E+00	 0.000E+00	 0.000E+00	 0.000E+00	 0.000E+00	 0.000E+00	 0.000E+00	|	 0.000E+00	|	 0.000E+00
 6.368E-08	|	          	|	 0.000E+00	 0.000E+00	 0.000E+00	 0.000E+00	 0.000E+00	 0.000E+00	 1.000E+00	 0.000E+00	 0.000E+00	 0.000E+00	|	 0.000E+00	|	 0.000E+00
 1.174E+03	|	          	|	 0.000E+00	 0.000E+00	 0.000E+00	 0.000E+00	 0.000E+00	 9.263E+02	 0.000E+00	 0.000E+00	 0.000E+00	 0.000E+00	|	 0.000E+00	|	 0.000E+00


--------- Azimuth =  24.00 deg (with respect to AzimB1Up =   0.00 deg) ---------
op State  	|	op        	|	A - State 	          	          	          	          	          	          	          	          	          	|	B - Input 	|	Bd - Dstrb
Derivativs	|	States    	|	Matrix    	          	          	          	          	          	          	          	          	          	|	Matrix    	|	Matrix    
 1.267E+00	|	 5.126E+00	|	 0.000E+00	 0.000E+00	 0.000E+00	 0.000E+00	 0.000E+00	 1.000E+00	 0.000E+00	 0.000E+00	 0.000E+00	 0.000E+00	|	 0.000E+00	|	 0.000E+00
 1.400E-07	|	 4.818E-03	|	 0.000E+00	 0.000E+00	 0.000E+00	 0.000E+00	 0.000E+00	 0.000E+00	 1.000E+00	 0.000E+00	 0.000E+00	 0.000E+00	|	 0.000E+00	|	 0.000E+00
 3.943E-01	|	 4.321E+00	|	 0.000E+00	 0.000E+00	 0.000E+00	 0.000E+00	 0.000E+00	 0.000E+00	 0.000E+00	 1.000E+00	 0.000E+00	 0.000E+00	|	 0.000E+00	|	 0.000E+00
-1.558E-01	|	 4.639E+00	|	 0.000E+00	 0.000E+00	 0.000E+00	 0.000E+00	 0.000E+00	 0.000E+00	 0.000E+00	 0.000E+00	 1.000E+00	 0.000E+00	|	 0.000E+00	|	 0.000E+00